taskid: 0 hostname: wrfteam4
Quilting with   1 groups of   0 I/O tasks.
 Ntasks in X            4 , ntasks in Y            5
  Domain # 1: dx =  9000.000 m
  Domain # 2: dx =  3000.000 m
WRF V4.6.0 MODEL
No git found or not a git repository, git commit version not available.
 *************************************
 Parent domain
 ids,ide,jds,jde            1         201           1         181
 ims,ime,jms,jme           -4          57          -4          43
 ips,ipe,jps,jpe            1          50           1          36
 *************************************
DYNAMICS OPTION: Eulerian Mass Coordinate
   alloc_space_field: domain            1 ,              93529468  bytes allocated
  med_initialdata_input: calling input_input
   Input data is acceptable to use: wrfinput_d01
 CURRENT DATE          = 2025-03-14_00:00:00
 SIMULATION START DATE = 2025-03-14_00:00:00
Timing for processing wrfinput file (stream 0) for domain        1:    0.88166 elapsed seconds
Max map factor in domain 1 =  1.01. Scale the dt in the model accordingly.
 D01: Time step                              =    54.0000000      (s)
 D01: Grid Distance                          =    9.00000000      (km)
 D01: Grid Distance Ratio dt/dx              =    6.00000000      (s/km)
 D01: Ratio Including Maximum Map Factor     =    6.04650259      (s/km)
 D01: NML defined reasonable_time_step_ratio =    6.00000000
 Climate GHG input from file from year         1765  to         2499
 CO2   range =    277.91300000000001        579.26400000000001       ppm
 N2O   range =    274.37200000000001        359.79800000000000       ppb
 CH4   range =    738.98599999999999        997.31100000000004       ppb
 CFC11 range =    0.0000000000000000        1.4000000000000000E-002  ppt
 CFC12 range =    0.0000000000000000        2.8809999999999998       ppt
 Normal ending of CAMtr_volume_mixing_ratio file
 GHG annual values from CAM trace gas file
 Year =         2025 , Julian day =           73
 CO2   =    4.2828365192688049E-004  volume mixing ratio
 N2O   =    3.3577984899461979E-007  volume mixing ratio
 CH4   =    1.9583345027477310E-006  volume mixing ratio
 CFC11 =    2.0512945332350967E-010  volume mixing ratio
 CFC12 =    4.7284755933180657E-010  volume mixing ratio
INPUT LandUse = "MODIFIED_IGBP_MODIS_NOAH"
 LANDUSE TYPE = "MODIFIED_IGBP_MODIS_NOAH" FOUND          61  CATEGORIES           2  SEASONS WATER CATEGORY =           17  SNOW CATEGORY =           15
INITIALIZE THREE Noah LSM RELATED TABLES
Skipping over LUTYPE = USGS
 LANDUSE TYPE = MODIFIED_IGBP_MODIS_NOAH FOUND          20  CATEGORIES
 INPUT SOIL TEXTURE CLASSIFICATION = STAS
 SOIL TEXTURE CLASSIFICATION = STAS FOUND          19  CATEGORIES
ThompMP: read qr_acr_qg_V4.dat     instead of computing
ThompMP: read qr_acr_qsV2.dat instead of computing
ThompMP: read freezeH2O.dat instead of computing
 *************************************
 Nesting domain
 ids,ide,jds,jde            1         202           1         199
 ims,ime,jms,jme           -4          63          -4          51
 ips,ipe,jps,jpe            1          51           1          40
 INTERMEDIATE domain
 ids,ide,jds,jde            3          75          82         153
 ims,ime,jms,jme           -2          31          77         106
 ips,ipe,jps,jpe            1          21          80          96
 *************************************
d01 2025-03-14_00:00:00  alloc_space_field: domain            2 ,              12003360  bytes allocated
d01 2025-03-14_00:00:00  alloc_space_field: domain            2 ,             116719916  bytes allocated
d01 2025-03-14_00:00:00 *** Initializing nest domain # 2 from an input file. ***
d01 2025-03-14_00:00:00 med_initialdata_input: calling input_input
d01 2025-03-14_00:00:00  Input data is acceptable to use: wrfinput_d02
Timing for processing wrfinput file (stream 0) for domain        2:    0.89913 elapsed seconds
 Climate GHG input from file from year         1765  to         2499
 CO2   range =    277.91300000000001        579.26400000000001       ppm
 N2O   range =    274.37200000000001        359.79800000000000       ppb
 CH4   range =    738.98599999999999        997.31100000000004       ppb
 CFC11 range =    0.0000000000000000        1.4000000000000000E-002  ppt
 CFC12 range =    0.0000000000000000        2.8809999999999998       ppt
 Normal ending of CAMtr_volume_mixing_ratio file
 GHG annual values from CAM trace gas file
 Year =         2025 , Julian day =           73
 CO2   =    4.2828365192688049E-004  volume mixing ratio
 N2O   =    3.3577984899461979E-007  volume mixing ratio
 CH4   =    1.9583345027477310E-006  volume mixing ratio
 CFC11 =    2.0512945332350967E-010  volume mixing ratio
 CFC12 =    4.7284755933180657E-010  volume mixing ratio
INPUT LandUse = "MODIFIED_IGBP_MODIS_NOAH"
 LANDUSE TYPE = "MODIFIED_IGBP_MODIS_NOAH" FOUND          61  CATEGORIES           2  SEASONS WATER CATEGORY =           17  SNOW CATEGORY =           15
INITIALIZE THREE Noah LSM RELATED TABLES
Skipping over LUTYPE = USGS
 LANDUSE TYPE = MODIFIED_IGBP_MODIS_NOAH FOUND          20  CATEGORIES
 INPUT SOIL TEXTURE CLASSIFICATION = STAS
 SOIL TEXTURE CLASSIFICATION = STAS FOUND          19  CATEGORIES
 Climate GHG input from file from year         1765  to         2499
 CO2   range =    277.91300000000001        579.26400000000001       ppm
 N2O   range =    274.37200000000001        359.79800000000000       ppb
 CH4   range =    738.98599999999999        997.31100000000004       ppb
 CFC11 range =    0.0000000000000000        1.4000000000000000E-002  ppt
 CFC12 range =    0.0000000000000000        2.8809999999999998       ppt
 Normal ending of CAMtr_volume_mixing_ratio file
 GHG annual values from CAM trace gas file
 Year =         2025 , Julian day =           73
 CO2   =    4.2828365192688049E-004  volume mixing ratio
 N2O   =    3.3577984899461979E-007  volume mixing ratio
 CH4   =    1.9583345027477310E-006  volume mixing ratio
 CFC11 =    2.0512945332350967E-010  volume mixing ratio
 CFC12 =    4.7284755933180657E-010  volume mixing ratio
INPUT LandUse = "MODIFIED_IGBP_MODIS_NOAH"
 LANDUSE TYPE = "MODIFIED_IGBP_MODIS_NOAH" FOUND          61  CATEGORIES           2  SEASONS WATER CATEGORY =           17  SNOW CATEGORY =           15
INITIALIZE THREE Noah LSM RELATED TABLES
Skipping over LUTYPE = USGS
 LANDUSE TYPE = MODIFIED_IGBP_MODIS_NOAH FOUND          20  CATEGORIES
 INPUT SOIL TEXTURE CLASSIFICATION = STAS
 SOIL TEXTURE CLASSIFICATION = STAS FOUND          19  CATEGORIES
Max map factor in domain 1 =  1.01. Scale the dt in the model accordingly.
 D01: Time step                              =    54.0000000      (s)
 D01: Grid Distance                          =    9.00000000      (km)
 D01: Grid Distance Ratio dt/dx              =    6.00000000      (s/km)
 D01: Ratio Including Maximum Map Factor     =    6.04650259      (s/km)
 D01: NML defined reasonable_time_step_ratio =    6.00000000
 Climate GHG input from file from year         1765  to         2499
 CO2   range =    277.91300000000001        579.26400000000001       ppm
 N2O   range =    274.37200000000001        359.79800000000000       ppb
 CH4   range =    738.98599999999999        997.31100000000004       ppb
 CFC11 range =    0.0000000000000000        1.4000000000000000E-002  ppt
 CFC12 range =    0.0000000000000000        2.8809999999999998       ppt
 Normal ending of CAMtr_volume_mixing_ratio file
 GHG annual values from CAM trace gas file
 Year =         2025 , Julian day =           73
 CO2   =    4.2828365192688049E-004  volume mixing ratio
 N2O   =    3.3577984899461979E-007  volume mixing ratio
 CH4   =    1.9583345027477310E-006  volume mixing ratio
 CFC11 =    2.0512945332350967E-010  volume mixing ratio
 CFC12 =    4.7284755933180657E-010  volume mixing ratio
INPUT LandUse = "MODIFIED_IGBP_MODIS_NOAH"
 LANDUSE TYPE = "MODIFIED_IGBP_MODIS_NOAH" FOUND          61  CATEGORIES           2  SEASONS WATER CATEGORY =           17  SNOW CATEGORY =           15
INITIALIZE THREE Noah LSM RELATED TABLES
Skipping over LUTYPE = USGS
 LANDUSE TYPE = MODIFIED_IGBP_MODIS_NOAH FOUND          20  CATEGORIES
 INPUT SOIL TEXTURE CLASSIFICATION = STAS
 SOIL TEXTURE CLASSIFICATION = STAS FOUND          19  CATEGORIES
Timing for Writing wrfout_d01_2025-03-14_00:00:00 for domain        1:    1.96183 elapsed seconds
d01 2025-03-14_00:00:00  Input data is acceptable to use: wrfbdy_d01
Timing for processing lateral boundary for domain        1:    0.13030 elapsed seconds
 Tile Strategy is not specified. Assuming 1D-Y
WRF TILE   1 IS      1 IE     50 JS      1 JE     36
WRF NUMBER OF TILES =   1
d01 2025-03-14_00:00:00  ----------------------------------------
d01 2025-03-14_00:00:00  W-DAMPING  BEGINS AT W-COURANT NUMBER =    1.00000000
d01 2025-03-14_00:00:00  ----------------------------------------
Timing for Writing wrfout_d02_2025-03-14_00:00:00 for domain        2:    2.06891 elapsed seconds
 Tile Strategy is not specified. Assuming 1D-Y
WRF TILE   1 IS      1 IE     51 JS      1 JE     40
WRF NUMBER OF TILES =   1
Timing for main: time 2025-03-14_00:00:18 on domain   2:    3.77687 elapsed seconds
Timing for main: time 2025-03-14_00:00:36 on domain   2:    0.52427 elapsed seconds
Timing for main: time 2025-03-14_00:00:54 on domain   2:    0.52743 elapsed seconds
Timing for main: time 2025-03-14_00:00:54 on domain   1:   11.27431 elapsed seconds
Timing for main: time 2025-03-14_00:01:12 on domain   2:    0.52747 elapsed seconds
Timing for main: time 2025-03-14_00:01:30 on domain   2:    0.53148 elapsed seconds
Timing for main: time 2025-03-14_00:01:48 on domain   2:    0.52521 elapsed seconds
Timing for main: time 2025-03-14_00:01:48 on domain   1:    2.39415 elapsed seconds
Timing for main: time 2025-03-14_00:02:06 on domain   2:    0.52675 elapsed seconds
Timing for main: time 2025-03-14_00:02:24 on domain   2:    0.52551 elapsed seconds
Timing for main: time 2025-03-14_00:02:42 on domain   2:    0.52634 elapsed seconds
Timing for main: time 2025-03-14_00:02:42 on domain   1:    2.39334 elapsed seconds
Timing for main: time 2025-03-14_00:03:00 on domain   2:    0.52557 elapsed seconds
Timing for main: time 2025-03-14_00:03:18 on domain   2:    0.52498 elapsed seconds
Timing for main: time 2025-03-14_00:03:36 on domain   2:    0.55044 elapsed seconds
Timing for main: time 2025-03-14_00:03:36 on domain   1:    2.40045 elapsed seconds
Timing for main: time 2025-03-14_00:03:54 on domain   2:    0.53047 elapsed seconds
Timing for main: time 2025-03-14_00:04:12 on domain   2:    0.52557 elapsed seconds
Timing for main: time 2025-03-14_00:04:30 on domain   2:    0.52514 elapsed seconds
Timing for main: time 2025-03-14_00:04:30 on domain   1:    2.38538 elapsed seconds
Timing for main: time 2025-03-14_00:04:48 on domain   2:    0.53598 elapsed seconds
Timing for main: time 2025-03-14_00:05:06 on domain   2:    0.55427 elapsed seconds
Timing for main: time 2025-03-14_00:05:24 on domain   2:    0.52403 elapsed seconds
Timing for main: time 2025-03-14_00:05:24 on domain   1:    2.45085 elapsed seconds
Timing for main: time 2025-03-14_00:05:42 on domain   2:    0.52490 elapsed seconds
Timing for main: time 2025-03-14_00:06:00 on domain   2:    0.52564 elapsed seconds
Timing for main: time 2025-03-14_00:06:18 on domain   2:    0.52721 elapsed seconds
Timing for main: time 2025-03-14_00:06:18 on domain   1:    2.43420 elapsed seconds
Timing for main: time 2025-03-14_00:06:36 on domain   2:    0.52894 elapsed seconds
Timing for main: time 2025-03-14_00:06:54 on domain   2:    0.56804 elapsed seconds
Timing for main: time 2025-03-14_00:07:12 on domain   2:    0.53101 elapsed seconds
Timing for main: time 2025-03-14_00:07:12 on domain   1:    2.44836 elapsed seconds
Timing for main: time 2025-03-14_00:07:30 on domain   2:    0.53673 elapsed seconds
Timing for main: time 2025-03-14_00:07:48 on domain   2:    0.53543 elapsed seconds
Timing for main: time 2025-03-14_00:08:06 on domain   2:    0.53398 elapsed seconds
Timing for main: time 2025-03-14_00:08:06 on domain   1:    2.40920 elapsed seconds
Timing for main: time 2025-03-14_00:08:24 on domain   2:    0.53529 elapsed seconds
Timing for main: time 2025-03-14_00:08:42 on domain   2:    0.52407 elapsed seconds
Timing for main: time 2025-03-14_00:09:00 on domain   2:    0.54985 elapsed seconds
Timing for main: time 2025-03-14_00:09:00 on domain   1:    2.44258 elapsed seconds
Timing for main: time 2025-03-14_00:09:18 on domain   2:    0.53133 elapsed seconds
Timing for main: time 2025-03-14_00:09:36 on domain   2:    0.52284 elapsed seconds
Timing for main: time 2025-03-14_00:09:54 on domain   2:    0.52531 elapsed seconds
Timing for main: time 2025-03-14_00:09:54 on domain   1:    2.37657 elapsed seconds
Timing for main: time 2025-03-14_00:10:12 on domain   2:    0.52673 elapsed seconds
Timing for main: time 2025-03-14_00:10:30 on domain   2:    0.52188 elapsed seconds
Timing for main: time 2025-03-14_00:10:48 on domain   2:    0.52148 elapsed seconds
Timing for main: time 2025-03-14_00:10:48 on domain   1:    2.43750 elapsed seconds
Timing for main: time 2025-03-14_00:11:06 on domain   2:    0.52393 elapsed seconds
Timing for main: time 2025-03-14_00:11:24 on domain   2:    0.52632 elapsed seconds
Timing for main: time 2025-03-14_00:11:42 on domain   2:    0.57140 elapsed seconds
Timing for main: time 2025-03-14_00:11:42 on domain   1:    2.42923 elapsed seconds
Timing for main: time 2025-03-14_00:12:00 on domain   2:    0.52641 elapsed seconds
Timing for main: time 2025-03-14_00:12:18 on domain   2:    0.53105 elapsed seconds
Timing for main: time 2025-03-14_00:12:36 on domain   2:    0.52539 elapsed seconds
Timing for main: time 2025-03-14_00:12:36 on domain   1:    2.37990 elapsed seconds
Timing for main: time 2025-03-14_00:12:54 on domain   2:    0.52553 elapsed seconds
Timing for main: time 2025-03-14_00:13:12 on domain   2:    0.52527 elapsed seconds
Timing for main: time 2025-03-14_00:13:30 on domain   2:    0.52970 elapsed seconds
Timing for main: time 2025-03-14_00:13:30 on domain   1:    2.37603 elapsed seconds
Timing for main: time 2025-03-14_00:13:48 on domain   2:    0.52822 elapsed seconds
Timing for main: time 2025-03-14_00:14:06 on domain   2:    0.52856 elapsed seconds
Timing for main: time 2025-03-14_00:14:24 on domain   2:    0.52407 elapsed seconds
Timing for main: time 2025-03-14_00:14:24 on domain   1:    2.39424 elapsed seconds
Timing for main: time 2025-03-14_00:14:42 on domain   2:    0.52622 elapsed seconds
Timing for main: time 2025-03-14_00:15:00 on domain   2:    0.52604 elapsed seconds
Timing for main: time 2025-03-14_00:15:18 on domain   2:    1.81192 elapsed seconds
Timing for main: time 2025-03-14_00:15:18 on domain   1:    3.65750 elapsed seconds
Timing for main: time 2025-03-14_00:15:36 on domain   2:    0.53315 elapsed seconds
Timing for main: time 2025-03-14_00:15:54 on domain   2:    0.52691 elapsed seconds
Timing for main: time 2025-03-14_00:16:12 on domain   2:    0.55205 elapsed seconds
Timing for main: time 2025-03-14_00:16:12 on domain   1:    3.53173 elapsed seconds
Timing for main: time 2025-03-14_00:16:30 on domain   2:    0.52653 elapsed seconds
Timing for main: time 2025-03-14_00:16:48 on domain   2:    0.54549 elapsed seconds
Timing for main: time 2025-03-14_00:17:06 on domain   2:    0.53043 elapsed seconds
Timing for main: time 2025-03-14_00:17:06 on domain   1:    2.39565 elapsed seconds
Timing for main: time 2025-03-14_00:17:24 on domain   2:    0.53036 elapsed seconds
Timing for main: time 2025-03-14_00:17:42 on domain   2:    0.52606 elapsed seconds
Timing for main: time 2025-03-14_00:18:00 on domain   2:    0.53489 elapsed seconds
Timing for main: time 2025-03-14_00:18:00 on domain   1:    2.38399 elapsed seconds
Timing for main: time 2025-03-14_00:18:18 on domain   2:    0.52798 elapsed seconds
Timing for main: time 2025-03-14_00:18:36 on domain   2:    0.53700 elapsed seconds
Timing for main: time 2025-03-14_00:18:54 on domain   2:    0.52936 elapsed seconds
Timing for main: time 2025-03-14_00:18:54 on domain   1:    2.39428 elapsed seconds
Timing for main: time 2025-03-14_00:19:12 on domain   2:    0.52828 elapsed seconds
Timing for main: time 2025-03-14_00:19:30 on domain   2:    0.52782 elapsed seconds
Timing for main: time 2025-03-14_00:19:48 on domain   2:    0.53623 elapsed seconds
Timing for main: time 2025-03-14_00:19:48 on domain   1:    2.40169 elapsed seconds
Timing for main: time 2025-03-14_00:20:06 on domain   2:    0.53032 elapsed seconds
Timing for main: time 2025-03-14_00:20:24 on domain   2:    0.52615 elapsed seconds
Timing for main: time 2025-03-14_00:20:42 on domain   2:    0.53285 elapsed seconds
Timing for main: time 2025-03-14_00:20:42 on domain   1:    2.40906 elapsed seconds
Timing for main: time 2025-03-14_00:21:00 on domain   2:    0.52649 elapsed seconds
Timing for main: time 2025-03-14_00:21:18 on domain   2:    0.52742 elapsed seconds
Timing for main: time 2025-03-14_00:21:36 on domain   2:    0.53362 elapsed seconds
Timing for main: time 2025-03-14_00:21:36 on domain   1:    2.41621 elapsed seconds
Timing for main: time 2025-03-14_00:21:54 on domain   2:    0.52837 elapsed seconds
Timing for main: time 2025-03-14_00:22:12 on domain   2:    0.53078 elapsed seconds
Timing for main: time 2025-03-14_00:22:30 on domain   2:    0.54923 elapsed seconds
Timing for main: time 2025-03-14_00:22:30 on domain   1:    2.44639 elapsed seconds
Timing for main: time 2025-03-14_00:22:48 on domain   2:    0.52964 elapsed seconds
Timing for main: time 2025-03-14_00:23:06 on domain   2:    0.52795 elapsed seconds
Timing for main: time 2025-03-14_00:23:24 on domain   2:    0.52690 elapsed seconds
Timing for main: time 2025-03-14_00:23:24 on domain   1:    2.43059 elapsed seconds
Timing for main: time 2025-03-14_00:23:42 on domain   2:    0.52721 elapsed seconds
Timing for main: time 2025-03-14_00:24:00 on domain   2:    0.53104 elapsed seconds
Timing for main: time 2025-03-14_00:24:18 on domain   2:    0.53410 elapsed seconds
Timing for main: time 2025-03-14_00:24:18 on domain   1:    2.38602 elapsed seconds
Timing for main: time 2025-03-14_00:24:36 on domain   2:    0.52990 elapsed seconds
Timing for main: time 2025-03-14_00:24:54 on domain   2:    0.52635 elapsed seconds
Timing for main: time 2025-03-14_00:25:12 on domain   2:    0.54276 elapsed seconds
Timing for main: time 2025-03-14_00:25:12 on domain   1:    2.39574 elapsed seconds
Timing for main: time 2025-03-14_00:25:30 on domain   2:    0.55208 elapsed seconds
Timing for main: time 2025-03-14_00:25:48 on domain   2:    0.54546 elapsed seconds
Timing for main: time 2025-03-14_00:26:06 on domain   2:    0.53857 elapsed seconds
Timing for main: time 2025-03-14_00:26:06 on domain   1:    2.42982 elapsed seconds
Timing for main: time 2025-03-14_00:26:24 on domain   2:    0.53004 elapsed seconds
Timing for main: time 2025-03-14_00:26:42 on domain   2:    0.53011 elapsed seconds
Timing for main: time 2025-03-14_00:27:00 on domain   2:    0.53675 elapsed seconds
Timing for main: time 2025-03-14_00:27:00 on domain   1:    2.41418 elapsed seconds
Timing for main: time 2025-03-14_00:27:18 on domain   2:    0.52911 elapsed seconds
Timing for main: time 2025-03-14_00:27:36 on domain   2:    0.52959 elapsed seconds
Timing for main: time 2025-03-14_00:27:54 on domain   2:    0.52530 elapsed seconds
Timing for main: time 2025-03-14_00:27:54 on domain   1:    2.37998 elapsed seconds
Timing for main: time 2025-03-14_00:28:12 on domain   2:    0.53173 elapsed seconds
Timing for main: time 2025-03-14_00:28:30 on domain   2:    0.53002 elapsed seconds
Timing for main: time 2025-03-14_00:28:48 on domain   2:    0.54988 elapsed seconds
Timing for main: time 2025-03-14_00:28:48 on domain   1:    2.40946 elapsed seconds
Timing for main: time 2025-03-14_00:29:06 on domain   2:    0.53043 elapsed seconds
Timing for main: time 2025-03-14_00:29:24 on domain   2:    0.52639 elapsed seconds
Timing for main: time 2025-03-14_00:29:42 on domain   2:    0.52906 elapsed seconds
Timing for main: time 2025-03-14_00:29:42 on domain   1:    2.39242 elapsed seconds
Timing for main: time 2025-03-14_00:30:00 on domain   2:    0.52936 elapsed seconds
Timing for main: time 2025-03-14_00:30:18 on domain   2:    1.73003 elapsed seconds
Timing for main: time 2025-03-14_00:30:36 on domain   2:    0.52756 elapsed seconds
Timing for main: time 2025-03-14_00:30:36 on domain   1:    3.58744 elapsed seconds
Timing for main: time 2025-03-14_00:30:54 on domain   2:    0.54926 elapsed seconds
Timing for main: time 2025-03-14_00:31:12 on domain   2:    0.58350 elapsed seconds
Timing for main: time 2025-03-14_00:31:30 on domain   2:    0.52980 elapsed seconds
Timing for main: time 2025-03-14_00:31:30 on domain   1:    3.49739 elapsed seconds
Timing for main: time 2025-03-14_00:31:48 on domain   2:    0.53307 elapsed seconds
Timing for main: time 2025-03-14_00:32:06 on domain   2:    0.52742 elapsed seconds
Timing for main: time 2025-03-14_00:32:24 on domain   2:    0.52682 elapsed seconds
Timing for main: time 2025-03-14_00:32:24 on domain   1:    2.40108 elapsed seconds
Timing for main: time 2025-03-14_00:32:42 on domain   2:    0.53074 elapsed seconds
Timing for main: time 2025-03-14_00:33:00 on domain   2:    0.53062 elapsed seconds
Timing for main: time 2025-03-14_00:33:18 on domain   2:    0.52612 elapsed seconds
Timing for main: time 2025-03-14_00:33:18 on domain   1:    2.38149 elapsed seconds
Timing for main: time 2025-03-14_00:33:36 on domain   2:    0.52882 elapsed seconds
Timing for main: time 2025-03-14_00:33:54 on domain   2:    0.53701 elapsed seconds
Timing for main: time 2025-03-14_00:34:12 on domain   2:    0.53437 elapsed seconds
Timing for main: time 2025-03-14_00:34:12 on domain   1:    2.40371 elapsed seconds
Timing for main: time 2025-03-14_00:34:30 on domain   2:    0.55460 elapsed seconds
Timing for main: time 2025-03-14_00:34:48 on domain   2:    0.52760 elapsed seconds
Timing for main: time 2025-03-14_00:35:06 on domain   2:    0.52947 elapsed seconds
Timing for main: time 2025-03-14_00:35:06 on domain   1:    2.40936 elapsed seconds
Timing for main: time 2025-03-14_00:35:24 on domain   2:    0.52727 elapsed seconds
Timing for main: time 2025-03-14_00:35:42 on domain   2:    0.57687 elapsed seconds
Timing for main: time 2025-03-14_00:36:00 on domain   2:    0.52683 elapsed seconds
Timing for main: time 2025-03-14_00:36:00 on domain   1:    2.42687 elapsed seconds
Timing for main: time 2025-03-14_00:36:18 on domain   2:    0.56308 elapsed seconds
Timing for main: time 2025-03-14_00:36:36 on domain   2:    0.53004 elapsed seconds
Timing for main: time 2025-03-14_00:36:54 on domain   2:    0.52936 elapsed seconds
Timing for main: time 2025-03-14_00:36:54 on domain   1:    2.42060 elapsed seconds
Timing for main: time 2025-03-14_00:37:12 on domain   2:    0.53086 elapsed seconds
Timing for main: time 2025-03-14_00:37:30 on domain   2:    0.57038 elapsed seconds
Timing for main: time 2025-03-14_00:37:48 on domain   2:    0.53763 elapsed seconds
Timing for main: time 2025-03-14_00:37:48 on domain   1:    2.45388 elapsed seconds
Timing for main: time 2025-03-14_00:38:06 on domain   2:    0.52953 elapsed seconds
Timing for main: time 2025-03-14_00:38:24 on domain   2:    0.53408 elapsed seconds
Timing for main: time 2025-03-14_00:38:42 on domain   2:    0.53237 elapsed seconds
Timing for main: time 2025-03-14_00:38:42 on domain   1:    2.39452 elapsed seconds
Timing for main: time 2025-03-14_00:39:00 on domain   2:    0.53056 elapsed seconds
Timing for main: time 2025-03-14_00:39:18 on domain   2:    0.53062 elapsed seconds
Timing for main: time 2025-03-14_00:39:36 on domain   2:    0.58636 elapsed seconds
Timing for main: time 2025-03-14_00:39:36 on domain   1:    2.44238 elapsed seconds
Timing for main: time 2025-03-14_00:39:54 on domain   2:    0.53322 elapsed seconds
Timing for main: time 2025-03-14_00:40:12 on domain   2:    0.53333 elapsed seconds
Timing for main: time 2025-03-14_00:40:30 on domain   2:    0.52988 elapsed seconds
Timing for main: time 2025-03-14_00:40:30 on domain   1:    2.39493 elapsed seconds
Timing for main: time 2025-03-14_00:40:48 on domain   2:    0.53318 elapsed seconds
Timing for main: time 2025-03-14_00:41:06 on domain   2:    0.53056 elapsed seconds
Timing for main: time 2025-03-14_00:41:24 on domain   2:    0.53029 elapsed seconds
Timing for main: time 2025-03-14_00:41:24 on domain   1:    2.38878 elapsed seconds
Timing for main: time 2025-03-14_00:41:42 on domain   2:    0.53801 elapsed seconds
Timing for main: time 2025-03-14_00:42:00 on domain   2:    0.53807 elapsed seconds
Timing for main: time 2025-03-14_00:42:18 on domain   2:    0.53009 elapsed seconds
Timing for main: time 2025-03-14_00:42:18 on domain   1:    2.41089 elapsed seconds
Timing for main: time 2025-03-14_00:42:36 on domain   2:    0.54223 elapsed seconds
Timing for main: time 2025-03-14_00:42:54 on domain   2:    0.53187 elapsed seconds
Timing for main: time 2025-03-14_00:43:12 on domain   2:    0.54567 elapsed seconds
Timing for main: time 2025-03-14_00:43:12 on domain   1:    2.46224 elapsed seconds
Timing for main: time 2025-03-14_00:43:30 on domain   2:    0.54018 elapsed seconds
Timing for main: time 2025-03-14_00:43:48 on domain   2:    0.53029 elapsed seconds
Timing for main: time 2025-03-14_00:44:06 on domain   2:    0.53249 elapsed seconds
Timing for main: time 2025-03-14_00:44:06 on domain   1:    2.40918 elapsed seconds
Timing for main: time 2025-03-14_00:44:24 on domain   2:    0.53504 elapsed seconds
Timing for main: time 2025-03-14_00:44:42 on domain   2:    0.53102 elapsed seconds
Timing for main: time 2025-03-14_00:45:00 on domain   2:    0.53308 elapsed seconds
Timing for main: time 2025-03-14_00:45:00 on domain   1:    2.39400 elapsed seconds
Timing for main: time 2025-03-14_00:45:18 on domain   2:    1.70765 elapsed seconds
Timing for main: time 2025-03-14_00:45:36 on domain   2:    0.53291 elapsed seconds
Timing for main: time 2025-03-14_00:45:54 on domain   2:    0.52737 elapsed seconds
Timing for main: time 2025-03-14_00:45:54 on domain   1:    3.56707 elapsed seconds
Timing for main: time 2025-03-14_00:46:12 on domain   2:    0.53124 elapsed seconds
Timing for main: time 2025-03-14_00:46:30 on domain   2:    0.53264 elapsed seconds
Timing for main: time 2025-03-14_00:46:48 on domain   2:    0.53104 elapsed seconds
Timing for main: time 2025-03-14_00:46:48 on domain   1:    3.49318 elapsed seconds
Timing for main: time 2025-03-14_00:47:06 on domain   2:    0.52833 elapsed seconds
Timing for main: time 2025-03-14_00:47:24 on domain   2:    0.53737 elapsed seconds
Timing for main: time 2025-03-14_00:47:42 on domain   2:    0.53068 elapsed seconds
Timing for main: time 2025-03-14_00:47:42 on domain   1:    2.41810 elapsed seconds
Timing for main: time 2025-03-14_00:48:00 on domain   2:    0.53787 elapsed seconds
Timing for main: time 2025-03-14_00:48:18 on domain   2:    0.53046 elapsed seconds
Timing for main: time 2025-03-14_00:48:36 on domain   2:    0.53552 elapsed seconds
Timing for main: time 2025-03-14_00:48:36 on domain   1:    2.42355 elapsed seconds
Timing for main: time 2025-03-14_00:48:54 on domain   2:    0.53473 elapsed seconds
Timing for main: time 2025-03-14_00:49:12 on domain   2:    0.53067 elapsed seconds
Timing for main: time 2025-03-14_00:49:30 on domain   2:    0.53068 elapsed seconds
Timing for main: time 2025-03-14_00:49:30 on domain   1:    2.39949 elapsed seconds
Timing for main: time 2025-03-14_00:49:48 on domain   2:    0.58004 elapsed seconds
Timing for main: time 2025-03-14_00:50:06 on domain   2:    0.53269 elapsed seconds
Timing for main: time 2025-03-14_00:50:24 on domain   2:    0.52915 elapsed seconds
Timing for main: time 2025-03-14_00:50:24 on domain   1:    2.44245 elapsed seconds
Timing for main: time 2025-03-14_00:50:42 on domain   2:    0.53060 elapsed seconds
Timing for main: time 2025-03-14_00:51:00 on domain   2:    0.53119 elapsed seconds
Timing for main: time 2025-03-14_00:51:18 on domain   2:    0.52989 elapsed seconds
Timing for main: time 2025-03-14_00:51:18 on domain   1:    2.39003 elapsed seconds
Timing for main: time 2025-03-14_00:51:36 on domain   2:    0.53272 elapsed seconds
Timing for main: time 2025-03-14_00:51:54 on domain   2:    0.53132 elapsed seconds
Timing for main: time 2025-03-14_00:52:12 on domain   2:    0.53103 elapsed seconds
Timing for main: time 2025-03-14_00:52:12 on domain   1:    2.39418 elapsed seconds
Timing for main: time 2025-03-14_00:52:30 on domain   2:    0.53106 elapsed seconds
Timing for main: time 2025-03-14_00:52:48 on domain   2:    0.52799 elapsed seconds
Timing for main: time 2025-03-14_00:53:06 on domain   2:    0.53439 elapsed seconds
Timing for main: time 2025-03-14_00:53:06 on domain   1:    2.39946 elapsed seconds
Timing for main: time 2025-03-14_00:53:24 on domain   2:    0.54003 elapsed seconds
Timing for main: time 2025-03-14_00:53:42 on domain   2:    0.53141 elapsed seconds
Timing for main: time 2025-03-14_00:54:00 on domain   2:    0.53263 elapsed seconds
Timing for main: time 2025-03-14_00:54:00 on domain   1:    2.42309 elapsed seconds
Timing for main: time 2025-03-14_00:54:18 on domain   2:    0.53214 elapsed seconds
Timing for main: time 2025-03-14_00:54:36 on domain   2:    0.53149 elapsed seconds
Timing for main: time 2025-03-14_00:54:54 on domain   2:    0.53367 elapsed seconds
Timing for main: time 2025-03-14_00:54:54 on domain   1:    2.42148 elapsed seconds
Timing for main: time 2025-03-14_00:55:12 on domain   2:    0.53688 elapsed seconds
Timing for main: time 2025-03-14_00:55:30 on domain   2:    0.53276 elapsed seconds
Timing for main: time 2025-03-14_00:55:48 on domain   2:    0.53300 elapsed seconds
Timing for main: time 2025-03-14_00:55:48 on domain   1:    2.40260 elapsed seconds
Timing for main: time 2025-03-14_00:56:06 on domain   2:    0.53250 elapsed seconds
Timing for main: time 2025-03-14_00:56:24 on domain   2:    0.53060 elapsed seconds
Timing for main: time 2025-03-14_00:56:42 on domain   2:    0.53166 elapsed seconds
Timing for main: time 2025-03-14_00:56:42 on domain   1:    2.40118 elapsed seconds
Timing for main: time 2025-03-14_00:57:00 on domain   2:    0.53103 elapsed seconds
Timing for main: time 2025-03-14_00:57:18 on domain   2:    0.55226 elapsed seconds
Timing for main: time 2025-03-14_00:57:36 on domain   2:    0.53456 elapsed seconds
Timing for main: time 2025-03-14_00:57:36 on domain   1:    2.43185 elapsed seconds
Timing for main: time 2025-03-14_00:57:54 on domain   2:    0.54177 elapsed seconds
Timing for main: time 2025-03-14_00:58:12 on domain   2:    0.55071 elapsed seconds
Timing for main: time 2025-03-14_00:58:30 on domain   2:    0.55163 elapsed seconds
Timing for main: time 2025-03-14_00:58:30 on domain   1:    2.44926 elapsed seconds
Timing for main: time 2025-03-14_00:58:48 on domain   2:    0.53985 elapsed seconds
Timing for main: time 2025-03-14_00:59:06 on domain   2:    0.53105 elapsed seconds
Timing for main: time 2025-03-14_00:59:24 on domain   2:    0.53166 elapsed seconds
Timing for main: time 2025-03-14_00:59:24 on domain   1:    2.42815 elapsed seconds
Timing for main: time 2025-03-14_00:59:42 on domain   2:    0.54915 elapsed seconds
Timing for main: time 2025-03-14_01:00:00 on domain   2:    0.53216 elapsed seconds
Timing for Writing wrfout_d02_2025-03-14_01:00:00 for domain        2:    2.04843 elapsed seconds
Timing for main: time 2025-03-14_01:00:18 on domain   2:    3.79298 elapsed seconds
Timing for main: time 2025-03-14_01:00:18 on domain   1:    5.67980 elapsed seconds
Timing for Writing wrfout_d01_2025-03-14_01:00:18 for domain        1:    1.94070 elapsed seconds
Timing for main: time 2025-03-14_01:00:36 on domain   2:    0.53334 elapsed seconds
Timing for main: time 2025-03-14_01:00:54 on domain   2:    0.53563 elapsed seconds
Timing for main: time 2025-03-14_01:01:12 on domain   2:    0.53253 elapsed seconds
Timing for main: time 2025-03-14_01:01:12 on domain   1:    4.37271 elapsed seconds
Timing for main: time 2025-03-14_01:01:30 on domain   2:    0.53187 elapsed seconds
Timing for main: time 2025-03-14_01:01:48 on domain   2:    0.53146 elapsed seconds
Timing for main: time 2025-03-14_01:02:06 on domain   2:    0.52960 elapsed seconds
Timing for main: time 2025-03-14_01:02:06 on domain   1:    3.46671 elapsed seconds
Timing for main: time 2025-03-14_01:02:24 on domain   2:    0.53278 elapsed seconds
Timing for main: time 2025-03-14_01:02:42 on domain   2:    0.54044 elapsed seconds
Timing for main: time 2025-03-14_01:03:00 on domain   2:    0.53290 elapsed seconds
Timing for main: time 2025-03-14_01:03:00 on domain   1:    2.41554 elapsed seconds
Timing for main: time 2025-03-14_01:03:18 on domain   2:    0.53201 elapsed seconds
Timing for main: time 2025-03-14_01:03:36 on domain   2:    0.53940 elapsed seconds
Timing for main: time 2025-03-14_01:03:54 on domain   2:    0.54458 elapsed seconds
Timing for main: time 2025-03-14_01:03:54 on domain   1:    2.43333 elapsed seconds
Timing for main: time 2025-03-14_01:04:12 on domain   2:    0.54063 elapsed seconds
Timing for main: time 2025-03-14_01:04:30 on domain   2:    0.53090 elapsed seconds
Timing for main: time 2025-03-14_01:04:48 on domain   2:    0.53044 elapsed seconds
Timing for main: time 2025-03-14_01:04:48 on domain   1:    2.42360 elapsed seconds
Timing for main: time 2025-03-14_01:05:06 on domain   2:    0.53569 elapsed seconds
Timing for main: time 2025-03-14_01:05:24 on domain   2:    0.55264 elapsed seconds
Timing for main: time 2025-03-14_01:05:42 on domain   2:    0.53098 elapsed seconds
Timing for main: time 2025-03-14_01:05:42 on domain   1:    2.42719 elapsed seconds
Timing for main: time 2025-03-14_01:06:00 on domain   2:    0.53976 elapsed seconds
Timing for main: time 2025-03-14_01:06:18 on domain   2:    0.53453 elapsed seconds
Timing for main: time 2025-03-14_01:06:36 on domain   2:    0.53642 elapsed seconds
Timing for main: time 2025-03-14_01:06:36 on domain   1:    2.41520 elapsed seconds
Timing for main: time 2025-03-14_01:06:54 on domain   2:    0.53411 elapsed seconds
Timing for main: time 2025-03-14_01:07:12 on domain   2:    0.53192 elapsed seconds
Timing for main: time 2025-03-14_01:07:30 on domain   2:    0.55476 elapsed seconds
Timing for main: time 2025-03-14_01:07:30 on domain   1:    2.43219 elapsed seconds
Timing for main: time 2025-03-14_01:07:48 on domain   2:    0.53153 elapsed seconds
Timing for main: time 2025-03-14_01:08:06 on domain   2:    0.54137 elapsed seconds
Timing for main: time 2025-03-14_01:08:24 on domain   2:    0.53541 elapsed seconds
Timing for main: time 2025-03-14_01:08:24 on domain   1:    2.42884 elapsed seconds
Timing for main: time 2025-03-14_01:08:42 on domain   2:    0.53634 elapsed seconds
Timing for main: time 2025-03-14_01:09:00 on domain   2:    0.53426 elapsed seconds
Timing for main: time 2025-03-14_01:09:18 on domain   2:    0.53211 elapsed seconds
Timing for main: time 2025-03-14_01:09:18 on domain   1:    2.41647 elapsed seconds
Timing for main: time 2025-03-14_01:09:36 on domain   2:    0.53181 elapsed seconds
Timing for main: time 2025-03-14_01:09:54 on domain   2:    0.53357 elapsed seconds
Timing for main: time 2025-03-14_01:10:12 on domain   2:    0.53906 elapsed seconds
Timing for main: time 2025-03-14_01:10:12 on domain   1:    2.44063 elapsed seconds
Timing for main: time 2025-03-14_01:10:30 on domain   2:    0.53895 elapsed seconds
Timing for main: time 2025-03-14_01:10:48 on domain   2:    0.59150 elapsed seconds
Timing for main: time 2025-03-14_01:11:06 on domain   2:    0.53204 elapsed seconds
Timing for main: time 2025-03-14_01:11:06 on domain   1:    2.46799 elapsed seconds
Timing for main: time 2025-03-14_01:11:24 on domain   2:    0.54398 elapsed seconds
Timing for main: time 2025-03-14_01:11:42 on domain   2:    0.53385 elapsed seconds
Timing for main: time 2025-03-14_01:12:00 on domain   2:    0.53178 elapsed seconds
Timing for main: time 2025-03-14_01:12:00 on domain   1:    2.42062 elapsed seconds
Timing for main: time 2025-03-14_01:12:18 on domain   2:    0.53507 elapsed seconds
Timing for main: time 2025-03-14_01:12:36 on domain   2:    0.53112 elapsed seconds
Timing for main: time 2025-03-14_01:12:54 on domain   2:    0.54237 elapsed seconds
Timing for main: time 2025-03-14_01:12:54 on domain   1:    2.41400 elapsed seconds
Timing for main: time 2025-03-14_01:13:12 on domain   2:    0.53247 elapsed seconds
Timing for main: time 2025-03-14_01:13:30 on domain   2:    0.53252 elapsed seconds
Timing for main: time 2025-03-14_01:13:48 on domain   2:    0.53266 elapsed seconds
Timing for main: time 2025-03-14_01:13:48 on domain   1:    2.43606 elapsed seconds
Timing for main: time 2025-03-14_01:14:06 on domain   2:    0.53652 elapsed seconds
Timing for main: time 2025-03-14_01:14:24 on domain   2:    0.54409 elapsed seconds
Timing for main: time 2025-03-14_01:14:42 on domain   2:    0.53410 elapsed seconds
Timing for main: time 2025-03-14_01:14:42 on domain   1:    2.42312 elapsed seconds
Timing for main: time 2025-03-14_01:15:00 on domain   2:    0.53808 elapsed seconds
Timing for main: time 2025-03-14_01:15:18 on domain   2:    1.71942 elapsed seconds
Timing for main: time 2025-03-14_01:15:36 on domain   2:    0.53605 elapsed seconds
Timing for main: time 2025-03-14_01:15:36 on domain   1:    3.62251 elapsed seconds
Timing for main: time 2025-03-14_01:15:54 on domain   2:    0.53335 elapsed seconds
Timing for main: time 2025-03-14_01:16:12 on domain   2:    0.53661 elapsed seconds
Timing for main: time 2025-03-14_01:16:30 on domain   2:    0.53278 elapsed seconds
Timing for main: time 2025-03-14_01:16:30 on domain   1:    2.40919 elapsed seconds
Timing for main: time 2025-03-14_01:16:48 on domain   2:    0.53548 elapsed seconds
Timing for main: time 2025-03-14_01:17:06 on domain   2:    0.53403 elapsed seconds
Timing for main: time 2025-03-14_01:17:24 on domain   2:    0.53496 elapsed seconds
Timing for main: time 2025-03-14_01:17:24 on domain   1:    3.49418 elapsed seconds
Timing for main: time 2025-03-14_01:17:42 on domain   2:    0.54259 elapsed seconds
Timing for main: time 2025-03-14_01:18:00 on domain   2:    0.53268 elapsed seconds
Timing for main: time 2025-03-14_01:18:18 on domain   2:    0.53206 elapsed seconds
Timing for main: time 2025-03-14_01:18:18 on domain   1:    2.47718 elapsed seconds
Timing for main: time 2025-03-14_01:18:36 on domain   2:    0.54138 elapsed seconds
Timing for main: time 2025-03-14_01:18:54 on domain   2:    0.54957 elapsed seconds
Timing for main: time 2025-03-14_01:19:12 on domain   2:    0.53499 elapsed seconds
Timing for main: time 2025-03-14_01:19:12 on domain   1:    2.43615 elapsed seconds
Timing for main: time 2025-03-14_01:19:30 on domain   2:    0.56855 elapsed seconds
Timing for main: time 2025-03-14_01:19:48 on domain   2:    0.53496 elapsed seconds
Timing for main: time 2025-03-14_01:20:06 on domain   2:    0.53274 elapsed seconds
Timing for main: time 2025-03-14_01:20:06 on domain   1:    2.47597 elapsed seconds
Timing for main: time 2025-03-14_01:20:24 on domain   2:    0.53757 elapsed seconds
Timing for main: time 2025-03-14_01:20:42 on domain   2:    0.53514 elapsed seconds
Timing for main: time 2025-03-14_01:21:00 on domain   2:    0.56868 elapsed seconds
Timing for main: time 2025-03-14_01:21:00 on domain   1:    2.47272 elapsed seconds
Timing for main: time 2025-03-14_01:21:18 on domain   2:    0.53611 elapsed seconds
Timing for main: time 2025-03-14_01:21:36 on domain   2:    0.53552 elapsed seconds
Timing for main: time 2025-03-14_01:21:54 on domain   2:    0.53636 elapsed seconds
Timing for main: time 2025-03-14_01:21:54 on domain   1:    2.41822 elapsed seconds
Timing for main: time 2025-03-14_01:22:12 on domain   2:    0.53672 elapsed seconds
Timing for main: time 2025-03-14_01:22:30 on domain   2:    0.53855 elapsed seconds
Timing for main: time 2025-03-14_01:22:48 on domain   2:    0.53687 elapsed seconds
Timing for main: time 2025-03-14_01:22:48 on domain   1:    2.42591 elapsed seconds
Timing for main: time 2025-03-14_01:23:06 on domain   2:    0.53701 elapsed seconds
Timing for main: time 2025-03-14_01:23:24 on domain   2:    0.53644 elapsed seconds
Timing for main: time 2025-03-14_01:23:42 on domain   2:    0.53211 elapsed seconds
Timing for main: time 2025-03-14_01:23:42 on domain   1:    2.41600 elapsed seconds
Timing for main: time 2025-03-14_01:24:00 on domain   2:    0.54150 elapsed seconds
Timing for main: time 2025-03-14_01:24:18 on domain   2:    0.53520 elapsed seconds
Timing for main: time 2025-03-14_01:24:36 on domain   2:    0.53616 elapsed seconds
Timing for main: time 2025-03-14_01:24:36 on domain   1:    2.42168 elapsed seconds
Timing for main: time 2025-03-14_01:24:54 on domain   2:    0.54446 elapsed seconds
Timing for main: time 2025-03-14_01:25:12 on domain   2:    0.54370 elapsed seconds
Timing for main: time 2025-03-14_01:25:30 on domain   2:    0.53612 elapsed seconds
Timing for main: time 2025-03-14_01:25:30 on domain   1:    2.43776 elapsed seconds
Timing for main: time 2025-03-14_01:25:48 on domain   2:    0.53810 elapsed seconds
Timing for main: time 2025-03-14_01:26:06 on domain   2:    0.53724 elapsed seconds
Timing for main: time 2025-03-14_01:26:24 on domain   2:    0.53594 elapsed seconds
Timing for main: time 2025-03-14_01:26:24 on domain   1:    2.45910 elapsed seconds
Timing for main: time 2025-03-14_01:26:42 on domain   2:    0.53835 elapsed seconds
Timing for main: time 2025-03-14_01:27:00 on domain   2:    0.54267 elapsed seconds
Timing for main: time 2025-03-14_01:27:18 on domain   2:    0.54270 elapsed seconds
Timing for main: time 2025-03-14_01:27:18 on domain   1:    2.44720 elapsed seconds
Timing for main: time 2025-03-14_01:27:36 on domain   2:    0.55664 elapsed seconds
Timing for main: time 2025-03-14_01:27:54 on domain   2:    0.53695 elapsed seconds
Timing for main: time 2025-03-14_01:28:12 on domain   2:    0.53694 elapsed seconds
Timing for main: time 2025-03-14_01:28:12 on domain   1:    2.44226 elapsed seconds
Timing for main: time 2025-03-14_01:28:30 on domain   2:    0.55582 elapsed seconds
Timing for main: time 2025-03-14_01:28:48 on domain   2:    0.53928 elapsed seconds
Timing for main: time 2025-03-14_01:29:06 on domain   2:    0.56554 elapsed seconds
Timing for main: time 2025-03-14_01:29:06 on domain   1:    2.47228 elapsed seconds
Timing for main: time 2025-03-14_01:29:24 on domain   2:    0.53750 elapsed seconds
Timing for main: time 2025-03-14_01:29:42 on domain   2:    0.53684 elapsed seconds
Timing for main: time 2025-03-14_01:30:00 on domain   2:    0.54482 elapsed seconds
Timing for main: time 2025-03-14_01:30:00 on domain   1:    2.43408 elapsed seconds
Timing for main: time 2025-03-14_01:30:18 on domain   2:    1.76411 elapsed seconds
Timing for main: time 2025-03-14_01:30:36 on domain   2:    0.53987 elapsed seconds
Timing for main: time 2025-03-14_01:30:54 on domain   2:    0.53446 elapsed seconds
Timing for main: time 2025-03-14_01:30:54 on domain   1:    3.65409 elapsed seconds
Timing for main: time 2025-03-14_01:31:12 on domain   2:    0.53539 elapsed seconds
Timing for main: time 2025-03-14_01:31:30 on domain   2:    0.61419 elapsed seconds
Timing for main: time 2025-03-14_01:31:48 on domain   2:    0.53535 elapsed seconds
Timing for main: time 2025-03-14_01:31:48 on domain   1:    2.51514 elapsed seconds
Timing for main: time 2025-03-14_01:32:06 on domain   2:    0.53928 elapsed seconds
Timing for main: time 2025-03-14_01:32:24 on domain   2:    0.54211 elapsed seconds
Timing for main: time 2025-03-14_01:32:42 on domain   2:    0.53399 elapsed seconds
Timing for main: time 2025-03-14_01:32:42 on domain   1:    3.51902 elapsed seconds
Timing for main: time 2025-03-14_01:33:00 on domain   2:    0.53673 elapsed seconds
Timing for main: time 2025-03-14_01:33:18 on domain   2:    0.53758 elapsed seconds
Timing for main: time 2025-03-14_01:33:36 on domain   2:    0.53595 elapsed seconds
Timing for main: time 2025-03-14_01:33:36 on domain   1:    2.42387 elapsed seconds
Timing for main: time 2025-03-14_01:33:54 on domain   2:    0.53876 elapsed seconds
Timing for main: time 2025-03-14_01:34:12 on domain   2:    0.54372 elapsed seconds
Timing for main: time 2025-03-14_01:34:30 on domain   2:    0.54853 elapsed seconds
Timing for main: time 2025-03-14_01:34:30 on domain   1:    2.44243 elapsed seconds
Timing for main: time 2025-03-14_01:34:48 on domain   2:    0.53879 elapsed seconds
Timing for main: time 2025-03-14_01:35:06 on domain   2:    0.53732 elapsed seconds
Timing for main: time 2025-03-14_01:35:24 on domain   2:    0.53737 elapsed seconds
Timing for main: time 2025-03-14_01:35:24 on domain   1:    2.42449 elapsed seconds
Timing for main: time 2025-03-14_01:35:42 on domain   2:    0.53833 elapsed seconds
Timing for main: time 2025-03-14_01:36:00 on domain   2:    0.53769 elapsed seconds
Timing for main: time 2025-03-14_01:36:18 on domain   2:    0.53821 elapsed seconds
Timing for main: time 2025-03-14_01:36:18 on domain   1:    2.42593 elapsed seconds
Timing for main: time 2025-03-14_01:36:36 on domain   2:    0.55438 elapsed seconds
Timing for main: time 2025-03-14_01:36:54 on domain   2:    0.53822 elapsed seconds
Timing for main: time 2025-03-14_01:37:12 on domain   2:    0.53811 elapsed seconds
Timing for main: time 2025-03-14_01:37:12 on domain   1:    2.46295 elapsed seconds
Timing for main: time 2025-03-14_01:37:30 on domain   2:    0.54003 elapsed seconds
Timing for main: time 2025-03-14_01:37:48 on domain   2:    0.53735 elapsed seconds
Timing for main: time 2025-03-14_01:38:06 on domain   2:    0.54077 elapsed seconds
Timing for main: time 2025-03-14_01:38:06 on domain   1:    2.43253 elapsed seconds
Timing for main: time 2025-03-14_01:38:24 on domain   2:    0.53730 elapsed seconds
Timing for main: time 2025-03-14_01:38:42 on domain   2:    0.55013 elapsed seconds
Timing for main: time 2025-03-14_01:39:00 on domain   2:    0.55309 elapsed seconds
Timing for main: time 2025-03-14_01:39:00 on domain   1:    2.48573 elapsed seconds
Timing for main: time 2025-03-14_01:39:18 on domain   2:    0.55929 elapsed seconds
Timing for main: time 2025-03-14_01:39:36 on domain   2:    0.54117 elapsed seconds
Timing for main: time 2025-03-14_01:39:54 on domain   2:    0.53604 elapsed seconds
Timing for main: time 2025-03-14_01:39:54 on domain   1:    2.44844 elapsed seconds
Timing for main: time 2025-03-14_01:40:12 on domain   2:    0.54076 elapsed seconds
Timing for main: time 2025-03-14_01:40:30 on domain   2:    0.54770 elapsed seconds
Timing for main: time 2025-03-14_01:40:48 on domain   2:    0.54008 elapsed seconds
Timing for main: time 2025-03-14_01:40:48 on domain   1:    2.44021 elapsed seconds
Timing for main: time 2025-03-14_01:41:06 on domain   2:    0.54946 elapsed seconds
Timing for main: time 2025-03-14_01:41:24 on domain   2:    0.55069 elapsed seconds
Timing for main: time 2025-03-14_01:41:42 on domain   2:    0.54231 elapsed seconds
Timing for main: time 2025-03-14_01:41:42 on domain   1:    2.47500 elapsed seconds
Timing for main: time 2025-03-14_01:42:00 on domain   2:    0.54707 elapsed seconds
Timing for main: time 2025-03-14_01:42:18 on domain   2:    0.60101 elapsed seconds
Timing for main: time 2025-03-14_01:42:36 on domain   2:    0.54718 elapsed seconds
Timing for main: time 2025-03-14_01:42:36 on domain   1:    2.53018 elapsed seconds
Timing for main: time 2025-03-14_01:42:54 on domain   2:    0.53695 elapsed seconds
Timing for main: time 2025-03-14_01:43:12 on domain   2:    0.53962 elapsed seconds
Timing for main: time 2025-03-14_01:43:30 on domain   2:    0.53726 elapsed seconds
Timing for main: time 2025-03-14_01:43:30 on domain   1:    2.47130 elapsed seconds
Timing for main: time 2025-03-14_01:43:48 on domain   2:    0.53645 elapsed seconds
Timing for main: time 2025-03-14_01:44:06 on domain   2:    0.53676 elapsed seconds
Timing for main: time 2025-03-14_01:44:24 on domain   2:    0.53807 elapsed seconds
Timing for main: time 2025-03-14_01:44:24 on domain   1:    2.42953 elapsed seconds
Timing for main: time 2025-03-14_01:44:42 on domain   2:    0.53934 elapsed seconds
Timing for main: time 2025-03-14_01:45:00 on domain   2:    0.54139 elapsed seconds
Timing for main: time 2025-03-14_01:45:18 on domain   2:    1.74735 elapsed seconds
Timing for main: time 2025-03-14_01:45:18 on domain   1:    3.64699 elapsed seconds
Timing for main: time 2025-03-14_01:45:36 on domain   2:    0.54935 elapsed seconds
Timing for main: time 2025-03-14_01:45:54 on domain   2:    0.56042 elapsed seconds
Timing for main: time 2025-03-14_01:46:12 on domain   2:    0.53600 elapsed seconds
Timing for main: time 2025-03-14_01:46:12 on domain   1:    2.46888 elapsed seconds
Timing for main: time 2025-03-14_01:46:30 on domain   2:    0.53692 elapsed seconds
Timing for main: time 2025-03-14_01:46:48 on domain   2:    0.53749 elapsed seconds
Timing for main: time 2025-03-14_01:47:06 on domain   2:    0.55089 elapsed seconds
Timing for main: time 2025-03-14_01:47:06 on domain   1:    2.45196 elapsed seconds
Timing for main: time 2025-03-14_01:47:24 on domain   2:    0.54288 elapsed seconds
Timing for main: time 2025-03-14_01:47:42 on domain   2:    0.53653 elapsed seconds
Timing for main: time 2025-03-14_01:48:00 on domain   2:    0.53651 elapsed seconds
Timing for main: time 2025-03-14_01:48:00 on domain   1:    3.71437 elapsed seconds
Timing for main: time 2025-03-14_01:48:18 on domain   2:    0.53989 elapsed seconds
Timing for main: time 2025-03-14_01:48:36 on domain   2:    0.55875 elapsed seconds
Timing for main: time 2025-03-14_01:48:54 on domain   2:    0.53746 elapsed seconds
Timing for main: time 2025-03-14_01:48:54 on domain   1:    2.44950 elapsed seconds
Timing for main: time 2025-03-14_01:49:12 on domain   2:    0.54881 elapsed seconds
Timing for main: time 2025-03-14_01:49:30 on domain   2:    0.53960 elapsed seconds
Timing for main: time 2025-03-14_01:49:48 on domain   2:    0.53907 elapsed seconds
Timing for main: time 2025-03-14_01:49:48 on domain   1:    2.46272 elapsed seconds
Timing for main: time 2025-03-14_01:50:06 on domain   2:    0.55034 elapsed seconds
Timing for main: time 2025-03-14_01:50:24 on domain   2:    0.54404 elapsed seconds
Timing for main: time 2025-03-14_01:50:42 on domain   2:    0.53890 elapsed seconds
Timing for main: time 2025-03-14_01:50:42 on domain   1:    2.47751 elapsed seconds
Timing for main: time 2025-03-14_01:51:00 on domain   2:    0.56178 elapsed seconds
Timing for main: time 2025-03-14_01:51:18 on domain   2:    0.54559 elapsed seconds
Timing for main: time 2025-03-14_01:51:36 on domain   2:    0.53727 elapsed seconds
Timing for main: time 2025-03-14_01:51:36 on domain   1:    2.46017 elapsed seconds
Timing for main: time 2025-03-14_01:51:54 on domain   2:    0.53792 elapsed seconds
Timing for main: time 2025-03-14_01:52:12 on domain   2:    0.53932 elapsed seconds
Timing for main: time 2025-03-14_01:52:30 on domain   2:    0.57189 elapsed seconds
Timing for main: time 2025-03-14_01:52:30 on domain   1:    2.51161 elapsed seconds
Timing for main: time 2025-03-14_01:52:48 on domain   2:    0.54365 elapsed seconds
Timing for main: time 2025-03-14_01:53:06 on domain   2:    0.55041 elapsed seconds
Timing for main: time 2025-03-14_01:53:24 on domain   2:    0.60393 elapsed seconds
Timing for main: time 2025-03-14_01:53:24 on domain   1:    2.53293 elapsed seconds
Timing for main: time 2025-03-14_01:53:42 on domain   2:    0.54546 elapsed seconds
Timing for main: time 2025-03-14_01:54:00 on domain   2:    0.54362 elapsed seconds
Timing for main: time 2025-03-14_01:54:18 on domain   2:    0.54001 elapsed seconds
Timing for main: time 2025-03-14_01:54:18 on domain   1:    2.44724 elapsed seconds
Timing for main: time 2025-03-14_01:54:36 on domain   2:    0.54470 elapsed seconds
Timing for main: time 2025-03-14_01:54:54 on domain   2:    0.53874 elapsed seconds
Timing for main: time 2025-03-14_01:55:12 on domain   2:    0.53805 elapsed seconds
Timing for main: time 2025-03-14_01:55:12 on domain   1:    2.49644 elapsed seconds
Timing for main: time 2025-03-14_01:55:30 on domain   2:    0.54065 elapsed seconds
Timing for main: time 2025-03-14_01:55:48 on domain   2:    0.53807 elapsed seconds
Timing for main: time 2025-03-14_01:56:06 on domain   2:    0.54993 elapsed seconds
Timing for main: time 2025-03-14_01:56:06 on domain   1:    2.46268 elapsed seconds
Timing for main: time 2025-03-14_01:56:24 on domain   2:    0.55009 elapsed seconds
Timing for main: time 2025-03-14_01:56:42 on domain   2:    0.58542 elapsed seconds
Timing for main: time 2025-03-14_01:57:00 on domain   2:    0.54086 elapsed seconds
Timing for main: time 2025-03-14_01:57:00 on domain   1:    2.54228 elapsed seconds
Timing for main: time 2025-03-14_01:57:18 on domain   2:    0.54076 elapsed seconds
Timing for main: time 2025-03-14_01:57:36 on domain   2:    0.54127 elapsed seconds
Timing for main: time 2025-03-14_01:57:54 on domain   2:    0.53914 elapsed seconds
Timing for main: time 2025-03-14_01:57:54 on domain   1:    2.43451 elapsed seconds
Timing for main: time 2025-03-14_01:58:12 on domain   2:    0.54192 elapsed seconds
Timing for main: time 2025-03-14_01:58:30 on domain   2:    0.53807 elapsed seconds
Timing for main: time 2025-03-14_01:58:48 on domain   2:    0.53854 elapsed seconds
Timing for main: time 2025-03-14_01:58:48 on domain   1:    2.45922 elapsed seconds
Timing for main: time 2025-03-14_01:59:06 on domain   2:    0.53997 elapsed seconds
Timing for main: time 2025-03-14_01:59:24 on domain   2:    0.54187 elapsed seconds
Timing for main: time 2025-03-14_01:59:42 on domain   2:    0.54159 elapsed seconds
Timing for main: time 2025-03-14_01:59:42 on domain   1:    2.44087 elapsed seconds
Timing for main: time 2025-03-14_02:00:00 on domain   2:    0.54252 elapsed seconds
Timing for Writing wrfout_d02_2025-03-14_02:00:00 for domain        2:    2.07670 elapsed seconds
Timing for main: time 2025-03-14_02:00:18 on domain   2:    3.84416 elapsed seconds
Timing for main: time 2025-03-14_02:00:36 on domain   2:    0.54064 elapsed seconds
Timing for main: time 2025-03-14_02:00:36 on domain   1:    5.75216 elapsed seconds
Timing for Writing wrfout_d01_2025-03-14_02:00:36 for domain        1:    1.97748 elapsed seconds
Timing for main: time 2025-03-14_02:00:54 on domain   2:    0.53962 elapsed seconds
Timing for main: time 2025-03-14_02:01:12 on domain   2:    0.54169 elapsed seconds
Timing for main: time 2025-03-14_02:01:30 on domain   2:    0.53641 elapsed seconds
Timing for main: time 2025-03-14_02:01:30 on domain   1:    4.41962 elapsed seconds
Timing for main: time 2025-03-14_02:01:48 on domain   2:    0.54160 elapsed seconds
Timing for main: time 2025-03-14_02:02:06 on domain   2:    0.54092 elapsed seconds
Timing for main: time 2025-03-14_02:02:24 on domain   2:    0.53994 elapsed seconds
Timing for main: time 2025-03-14_02:02:24 on domain   1:    2.44785 elapsed seconds
Timing for main: time 2025-03-14_02:02:42 on domain   2:    0.54095 elapsed seconds
Timing for main: time 2025-03-14_02:03:00 on domain   2:    0.54655 elapsed seconds
Timing for main: time 2025-03-14_02:03:18 on domain   2:    0.54332 elapsed seconds
Timing for main: time 2025-03-14_02:03:18 on domain   1:    3.56028 elapsed seconds
Timing for main: time 2025-03-14_02:03:36 on domain   2:    0.54313 elapsed seconds
Timing for main: time 2025-03-14_02:03:54 on domain   2:    0.54241 elapsed seconds
Timing for main: time 2025-03-14_02:04:12 on domain   2:    0.54081 elapsed seconds
Timing for main: time 2025-03-14_02:04:12 on domain   1:    2.51818 elapsed seconds
Timing for main: time 2025-03-14_02:04:30 on domain   2:    0.54123 elapsed seconds
Timing for main: time 2025-03-14_02:04:48 on domain   2:    0.54014 elapsed seconds
Timing for main: time 2025-03-14_02:05:06 on domain   2:    0.54465 elapsed seconds
Timing for main: time 2025-03-14_02:05:06 on domain   1:    2.48951 elapsed seconds
Timing for main: time 2025-03-14_02:05:24 on domain   2:    0.54071 elapsed seconds
Timing for main: time 2025-03-14_02:05:42 on domain   2:    0.55065 elapsed seconds
Timing for main: time 2025-03-14_02:06:00 on domain   2:    0.53966 elapsed seconds
Timing for main: time 2025-03-14_02:06:00 on domain   1:    2.44782 elapsed seconds
Timing for main: time 2025-03-14_02:06:18 on domain   2:    0.59890 elapsed seconds
Timing for main: time 2025-03-14_02:06:36 on domain   2:    0.55267 elapsed seconds
Timing for main: time 2025-03-14_02:06:54 on domain   2:    0.54975 elapsed seconds
Timing for main: time 2025-03-14_02:06:54 on domain   1:    2.51775 elapsed seconds
Timing for main: time 2025-03-14_02:07:12 on domain   2:    0.54048 elapsed seconds
Timing for main: time 2025-03-14_02:07:30 on domain   2:    0.54913 elapsed seconds
Timing for main: time 2025-03-14_02:07:48 on domain   2:    0.54101 elapsed seconds
Timing for main: time 2025-03-14_02:07:48 on domain   1:    2.51922 elapsed seconds
Timing for main: time 2025-03-14_02:08:06 on domain   2:    0.54537 elapsed seconds
Timing for main: time 2025-03-14_02:08:24 on domain   2:    0.54694 elapsed seconds
Timing for main: time 2025-03-14_02:08:42 on domain   2:    0.54890 elapsed seconds
Timing for main: time 2025-03-14_02:08:42 on domain   1:    2.45678 elapsed seconds
Timing for main: time 2025-03-14_02:09:00 on domain   2:    0.53921 elapsed seconds
Timing for main: time 2025-03-14_02:09:18 on domain   2:    0.54917 elapsed seconds
Timing for main: time 2025-03-14_02:09:36 on domain   2:    0.54694 elapsed seconds
Timing for main: time 2025-03-14_02:09:36 on domain   1:    2.49147 elapsed seconds
Timing for main: time 2025-03-14_02:09:54 on domain   2:    0.57138 elapsed seconds
Timing for main: time 2025-03-14_02:10:12 on domain   2:    0.54367 elapsed seconds
Timing for main: time 2025-03-14_02:10:30 on domain   2:    0.54535 elapsed seconds
Timing for main: time 2025-03-14_02:10:30 on domain   1:    2.48366 elapsed seconds
Timing for main: time 2025-03-14_02:10:48 on domain   2:    0.54539 elapsed seconds
Timing for main: time 2025-03-14_02:11:06 on domain   2:    0.54781 elapsed seconds
Timing for main: time 2025-03-14_02:11:24 on domain   2:    0.55558 elapsed seconds
Timing for main: time 2025-03-14_02:11:24 on domain   1:    2.46920 elapsed seconds
Timing for main: time 2025-03-14_02:11:42 on domain   2:    0.54078 elapsed seconds
Timing for main: time 2025-03-14_02:12:00 on domain   2:    0.54053 elapsed seconds
Timing for main: time 2025-03-14_02:12:18 on domain   2:    0.56611 elapsed seconds
Timing for main: time 2025-03-14_02:12:18 on domain   1:    2.51789 elapsed seconds
Timing for main: time 2025-03-14_02:12:36 on domain   2:    0.54765 elapsed seconds
Timing for main: time 2025-03-14_02:12:54 on domain   2:    0.54869 elapsed seconds
Timing for main: time 2025-03-14_02:13:12 on domain   2:    0.54879 elapsed seconds
Timing for main: time 2025-03-14_02:13:12 on domain   1:    2.50309 elapsed seconds
Timing for main: time 2025-03-14_02:13:30 on domain   2:    0.54277 elapsed seconds
Timing for main: time 2025-03-14_02:13:48 on domain   2:    0.53966 elapsed seconds
Timing for main: time 2025-03-14_02:14:06 on domain   2:    0.54915 elapsed seconds
Timing for main: time 2025-03-14_02:14:06 on domain   1:    2.46327 elapsed seconds
Timing for main: time 2025-03-14_02:14:24 on domain   2:    0.54483 elapsed seconds
Timing for main: time 2025-03-14_02:14:42 on domain   2:    0.55382 elapsed seconds
Timing for main: time 2025-03-14_02:15:00 on domain   2:    0.54259 elapsed seconds
Timing for main: time 2025-03-14_02:15:00 on domain   1:    2.50123 elapsed seconds
Timing for main: time 2025-03-14_02:15:18 on domain   2:    1.77122 elapsed seconds
Timing for main: time 2025-03-14_02:15:36 on domain   2:    0.55200 elapsed seconds
Timing for main: time 2025-03-14_02:15:54 on domain   2:    0.54251 elapsed seconds
Timing for main: time 2025-03-14_02:15:54 on domain   1:    3.70775 elapsed seconds
Timing for main: time 2025-03-14_02:16:12 on domain   2:    0.53898 elapsed seconds
Timing for main: time 2025-03-14_02:16:30 on domain   2:    0.53907 elapsed seconds
Timing for main: time 2025-03-14_02:16:48 on domain   2:    0.54065 elapsed seconds
Timing for main: time 2025-03-14_02:16:48 on domain   1:    2.43869 elapsed seconds
Timing for main: time 2025-03-14_02:17:06 on domain   2:    0.53970 elapsed seconds
Timing for main: time 2025-03-14_02:17:24 on domain   2:    0.54214 elapsed seconds
Timing for main: time 2025-03-14_02:17:42 on domain   2:    0.55386 elapsed seconds
Timing for main: time 2025-03-14_02:17:42 on domain   1:    2.47984 elapsed seconds
Timing for main: time 2025-03-14_02:18:00 on domain   2:    0.54847 elapsed seconds
Timing for main: time 2025-03-14_02:18:18 on domain   2:    0.56685 elapsed seconds
Timing for main: time 2025-03-14_02:18:36 on domain   2:    0.53821 elapsed seconds
Timing for main: time 2025-03-14_02:18:36 on domain   1:    3.59032 elapsed seconds
Timing for main: time 2025-03-14_02:18:54 on domain   2:    0.55027 elapsed seconds
Timing for main: time 2025-03-14_02:19:12 on domain   2:    0.56655 elapsed seconds
Timing for main: time 2025-03-14_02:19:30 on domain   2:    0.55866 elapsed seconds
Timing for main: time 2025-03-14_02:19:30 on domain   1:    2.49545 elapsed seconds
Timing for main: time 2025-03-14_02:19:48 on domain   2:    0.54051 elapsed seconds
Timing for main: time 2025-03-14_02:20:06 on domain   2:    0.53677 elapsed seconds
Timing for main: time 2025-03-14_02:20:24 on domain   2:    0.57203 elapsed seconds
Timing for main: time 2025-03-14_02:20:24 on domain   1:    2.49727 elapsed seconds
Timing for main: time 2025-03-14_02:20:42 on domain   2:    0.53886 elapsed seconds
Timing for main: time 2025-03-14_02:21:00 on domain   2:    0.53995 elapsed seconds
Timing for main: time 2025-03-14_02:21:18 on domain   2:    0.54151 elapsed seconds
Timing for main: time 2025-03-14_02:21:18 on domain   1:    2.46352 elapsed seconds
Timing for main: time 2025-03-14_02:21:36 on domain   2:    0.54070 elapsed seconds
Timing for main: time 2025-03-14_02:21:54 on domain   2:    0.54021 elapsed seconds
Timing for main: time 2025-03-14_02:22:12 on domain   2:    0.55382 elapsed seconds
Timing for main: time 2025-03-14_02:22:12 on domain   1:    2.46737 elapsed seconds
Timing for main: time 2025-03-14_02:22:30 on domain   2:    0.53743 elapsed seconds
Timing for main: time 2025-03-14_02:22:48 on domain   2:    0.54059 elapsed seconds
Timing for main: time 2025-03-14_02:23:06 on domain   2:    0.56119 elapsed seconds
Timing for main: time 2025-03-14_02:23:06 on domain   1:    2.45777 elapsed seconds
Timing for main: time 2025-03-14_02:23:24 on domain   2:    0.55574 elapsed seconds
Timing for main: time 2025-03-14_02:23:42 on domain   2:    0.55215 elapsed seconds
Timing for main: time 2025-03-14_02:24:00 on domain   2:    0.53982 elapsed seconds
Timing for main: time 2025-03-14_02:24:00 on domain   1:    2.49311 elapsed seconds
Timing for main: time 2025-03-14_02:24:18 on domain   2:    0.56217 elapsed seconds
Timing for main: time 2025-03-14_02:24:36 on domain   2:    0.53938 elapsed seconds
Timing for main: time 2025-03-14_02:24:54 on domain   2:    0.54785 elapsed seconds
Timing for main: time 2025-03-14_02:24:54 on domain   1:    2.46709 elapsed seconds
Timing for main: time 2025-03-14_02:25:12 on domain   2:    0.54418 elapsed seconds
Timing for main: time 2025-03-14_02:25:30 on domain   2:    0.54268 elapsed seconds
Timing for main: time 2025-03-14_02:25:48 on domain   2:    0.54007 elapsed seconds
Timing for main: time 2025-03-14_02:25:48 on domain   1:    2.46274 elapsed seconds
Timing for main: time 2025-03-14_02:26:06 on domain   2:    0.54042 elapsed seconds
Timing for main: time 2025-03-14_02:26:24 on domain   2:    0.54169 elapsed seconds
Timing for main: time 2025-03-14_02:26:42 on domain   2:    0.55992 elapsed seconds
Timing for main: time 2025-03-14_02:26:42 on domain   1:    2.52941 elapsed seconds
Timing for main: time 2025-03-14_02:27:00 on domain   2:    0.54697 elapsed seconds
Timing for main: time 2025-03-14_02:27:18 on domain   2:    0.54448 elapsed seconds
Timing for main: time 2025-03-14_02:27:36 on domain   2:    0.56049 elapsed seconds
Timing for main: time 2025-03-14_02:27:36 on domain   1:    2.49939 elapsed seconds
Timing for main: time 2025-03-14_02:27:54 on domain   2:    0.55331 elapsed seconds
Timing for main: time 2025-03-14_02:28:12 on domain   2:    0.53922 elapsed seconds
Timing for main: time 2025-03-14_02:28:30 on domain   2:    0.53865 elapsed seconds
Timing for main: time 2025-03-14_02:28:30 on domain   1:    2.46196 elapsed seconds
Timing for main: time 2025-03-14_02:28:48 on domain   2:    0.53924 elapsed seconds
Timing for main: time 2025-03-14_02:29:06 on domain   2:    0.54403 elapsed seconds
Timing for main: time 2025-03-14_02:29:24 on domain   2:    0.54039 elapsed seconds
Timing for main: time 2025-03-14_02:29:24 on domain   1:    2.44127 elapsed seconds
Timing for main: time 2025-03-14_02:29:42 on domain   2:    0.54143 elapsed seconds
Timing for main: time 2025-03-14_02:30:00 on domain   2:    0.54289 elapsed seconds
Timing for main: time 2025-03-14_02:30:18 on domain   2:    1.77162 elapsed seconds
Timing for main: time 2025-03-14_02:30:18 on domain   1:    3.68641 elapsed seconds
Timing for main: time 2025-03-14_02:30:36 on domain   2:    0.55558 elapsed seconds
Timing for main: time 2025-03-14_02:30:54 on domain   2:    0.59976 elapsed seconds
Timing for main: time 2025-03-14_02:31:12 on domain   2:    0.53996 elapsed seconds
Timing for main: time 2025-03-14_02:31:12 on domain   1:    2.57909 elapsed seconds
Timing for main: time 2025-03-14_02:31:30 on domain   2:    0.53830 elapsed seconds
Timing for main: time 2025-03-14_02:31:48 on domain   2:    0.53945 elapsed seconds
Timing for main: time 2025-03-14_02:32:06 on domain   2:    0.55813 elapsed seconds
Timing for main: time 2025-03-14_02:32:06 on domain   1:    2.52285 elapsed seconds
Timing for main: time 2025-03-14_02:32:24 on domain   2:    0.54150 elapsed seconds
Timing for main: time 2025-03-14_02:32:42 on domain   2:    0.54188 elapsed seconds
Timing for main: time 2025-03-14_02:33:00 on domain   2:    0.55054 elapsed seconds
Timing for main: time 2025-03-14_02:33:00 on domain   1:    2.46246 elapsed seconds
Timing for main: time 2025-03-14_02:33:18 on domain   2:    0.54640 elapsed seconds
Timing for main: time 2025-03-14_02:33:36 on domain   2:    0.54320 elapsed seconds
Timing for main: time 2025-03-14_02:33:54 on domain   2:    0.53718 elapsed seconds
Timing for main: time 2025-03-14_02:33:54 on domain   1:    3.61561 elapsed seconds
Timing for main: time 2025-03-14_02:34:12 on domain   2:    0.56494 elapsed seconds
Timing for main: time 2025-03-14_02:34:30 on domain   2:    0.53735 elapsed seconds
Timing for main: time 2025-03-14_02:34:48 on domain   2:    0.53728 elapsed seconds
Timing for main: time 2025-03-14_02:34:48 on domain   1:    2.45227 elapsed seconds
Timing for main: time 2025-03-14_02:35:06 on domain   2:    0.58407 elapsed seconds
Timing for main: time 2025-03-14_02:35:24 on domain   2:    0.54857 elapsed seconds
Timing for main: time 2025-03-14_02:35:42 on domain   2:    0.55845 elapsed seconds
Timing for main: time 2025-03-14_02:35:42 on domain   1:    2.52081 elapsed seconds
Timing for main: time 2025-03-14_02:36:00 on domain   2:    0.54689 elapsed seconds
Timing for main: time 2025-03-14_02:36:18 on domain   2:    0.54569 elapsed seconds
Timing for main: time 2025-03-14_02:36:36 on domain   2:    0.53781 elapsed seconds
Timing for main: time 2025-03-14_02:36:36 on domain   1:    2.46678 elapsed seconds
Timing for main: time 2025-03-14_02:36:54 on domain   2:    0.56416 elapsed seconds
Timing for main: time 2025-03-14_02:37:12 on domain   2:    0.55804 elapsed seconds
Timing for main: time 2025-03-14_02:37:30 on domain   2:    0.55282 elapsed seconds
Timing for main: time 2025-03-14_02:37:30 on domain   1:    2.49449 elapsed seconds
Timing for main: time 2025-03-14_02:37:48 on domain   2:    0.63064 elapsed seconds
Timing for main: time 2025-03-14_02:38:06 on domain   2:    0.56344 elapsed seconds
Timing for main: time 2025-03-14_02:38:24 on domain   2:    0.57028 elapsed seconds
Timing for main: time 2025-03-14_02:38:24 on domain   1:    2.59846 elapsed seconds
Timing for main: time 2025-03-14_02:38:42 on domain   2:    0.53924 elapsed seconds
Timing for main: time 2025-03-14_02:39:00 on domain   2:    0.54005 elapsed seconds
Timing for main: time 2025-03-14_02:39:18 on domain   2:    0.53984 elapsed seconds
Timing for main: time 2025-03-14_02:39:18 on domain   1:    2.45214 elapsed seconds
Timing for main: time 2025-03-14_02:39:36 on domain   2:    0.54184 elapsed seconds
Timing for main: time 2025-03-14_02:39:54 on domain   2:    0.54062 elapsed seconds
Timing for main: time 2025-03-14_02:40:12 on domain   2:    0.54034 elapsed seconds
Timing for main: time 2025-03-14_02:40:12 on domain   1:    2.46719 elapsed seconds
Timing for main: time 2025-03-14_02:40:30 on domain   2:    0.54013 elapsed seconds
Timing for main: time 2025-03-14_02:40:48 on domain   2:    0.55779 elapsed seconds
Timing for main: time 2025-03-14_02:41:06 on domain   2:    0.54039 elapsed seconds
Timing for main: time 2025-03-14_02:41:06 on domain   1:    2.45655 elapsed seconds
Timing for main: time 2025-03-14_02:41:24 on domain   2:    0.54097 elapsed seconds
Timing for main: time 2025-03-14_02:41:42 on domain   2:    0.55365 elapsed seconds
Timing for main: time 2025-03-14_02:42:00 on domain   2:    0.53960 elapsed seconds
Timing for main: time 2025-03-14_02:42:00 on domain   1:    2.49685 elapsed seconds
Timing for main: time 2025-03-14_02:42:18 on domain   2:    0.53760 elapsed seconds
Timing for main: time 2025-03-14_02:42:36 on domain   2:    0.53842 elapsed seconds
Timing for main: time 2025-03-14_02:42:54 on domain   2:    0.55114 elapsed seconds
Timing for main: time 2025-03-14_02:42:54 on domain   1:    2.46613 elapsed seconds
Timing for main: time 2025-03-14_02:43:12 on domain   2:    0.53519 elapsed seconds
Timing for main: time 2025-03-14_02:43:30 on domain   2:    0.54088 elapsed seconds
Timing for main: time 2025-03-14_02:43:48 on domain   2:    0.54277 elapsed seconds
Timing for main: time 2025-03-14_02:43:48 on domain   1:    2.45452 elapsed seconds
Timing for main: time 2025-03-14_02:44:06 on domain   2:    0.54827 elapsed seconds
Timing for main: time 2025-03-14_02:44:24 on domain   2:    0.53759 elapsed seconds
Timing for main: time 2025-03-14_02:44:42 on domain   2:    0.54733 elapsed seconds
Timing for main: time 2025-03-14_02:44:42 on domain   1:    2.44938 elapsed seconds
Timing for main: time 2025-03-14_02:45:00 on domain   2:    0.53757 elapsed seconds
Timing for main: time 2025-03-14_02:45:18 on domain   2:    1.86926 elapsed seconds
Timing for main: time 2025-03-14_02:45:36 on domain   2:    0.54556 elapsed seconds
Timing for main: time 2025-03-14_02:45:36 on domain   1:    3.77080 elapsed seconds
Timing for main: time 2025-03-14_02:45:54 on domain   2:    0.54222 elapsed seconds
Timing for main: time 2025-03-14_02:46:12 on domain   2:    0.53824 elapsed seconds
Timing for main: time 2025-03-14_02:46:30 on domain   2:    0.57109 elapsed seconds
Timing for main: time 2025-03-14_02:46:30 on domain   1:    2.46915 elapsed seconds
Timing for main: time 2025-03-14_02:46:48 on domain   2:    0.53674 elapsed seconds
Timing for main: time 2025-03-14_02:47:06 on domain   2:    0.53912 elapsed seconds
Timing for main: time 2025-03-14_02:47:24 on domain   2:    0.55053 elapsed seconds
Timing for main: time 2025-03-14_02:47:24 on domain   1:    2.47342 elapsed seconds
Timing for main: time 2025-03-14_02:47:42 on domain   2:    0.54974 elapsed seconds
Timing for main: time 2025-03-14_02:48:00 on domain   2:    0.53667 elapsed seconds
Timing for main: time 2025-03-14_02:48:18 on domain   2:    0.53677 elapsed seconds
Timing for main: time 2025-03-14_02:48:18 on domain   1:    2.46337 elapsed seconds
Timing for main: time 2025-03-14_02:48:36 on domain   2:    0.54037 elapsed seconds
Timing for main: time 2025-03-14_02:48:54 on domain   2:    0.53801 elapsed seconds
Timing for main: time 2025-03-14_02:49:12 on domain   2:    0.53515 elapsed seconds
Timing for main: time 2025-03-14_02:49:12 on domain   1:    3.63786 elapsed seconds
Timing for main: time 2025-03-14_02:49:30 on domain   2:    0.53901 elapsed seconds
Timing for main: time 2025-03-14_02:49:48 on domain   2:    0.54441 elapsed seconds
Timing for main: time 2025-03-14_02:50:06 on domain   2:    0.54718 elapsed seconds
Timing for main: time 2025-03-14_02:50:06 on domain   1:    2.45323 elapsed seconds
Timing for main: time 2025-03-14_02:50:24 on domain   2:    0.57903 elapsed seconds
Timing for main: time 2025-03-14_02:50:42 on domain   2:    0.53681 elapsed seconds
Timing for main: time 2025-03-14_02:51:00 on domain   2:    0.53983 elapsed seconds
Timing for main: time 2025-03-14_02:51:00 on domain   1:    2.49656 elapsed seconds
Timing for main: time 2025-03-14_02:51:18 on domain   2:    0.53644 elapsed seconds
Timing for main: time 2025-03-14_02:51:36 on domain   2:    0.53657 elapsed seconds
Timing for main: time 2025-03-14_02:51:54 on domain   2:    0.57287 elapsed seconds
Timing for main: time 2025-03-14_02:51:54 on domain   1:    2.46679 elapsed seconds
Timing for main: time 2025-03-14_02:52:12 on domain   2:    0.54084 elapsed seconds
Timing for main: time 2025-03-14_02:52:30 on domain   2:    0.54643 elapsed seconds
Timing for main: time 2025-03-14_02:52:48 on domain   2:    0.55427 elapsed seconds
Timing for main: time 2025-03-14_02:52:48 on domain   1:    2.48266 elapsed seconds
Timing for main: time 2025-03-14_02:53:06 on domain   2:    0.54065 elapsed seconds
Timing for main: time 2025-03-14_02:53:24 on domain   2:    0.54137 elapsed seconds
Timing for main: time 2025-03-14_02:53:42 on domain   2:    0.53592 elapsed seconds
Timing for main: time 2025-03-14_02:53:42 on domain   1:    2.49371 elapsed seconds
Timing for main: time 2025-03-14_02:54:00 on domain   2:    0.53924 elapsed seconds
Timing for main: time 2025-03-14_02:54:18 on domain   2:    0.53539 elapsed seconds
Timing for main: time 2025-03-14_02:54:36 on domain   2:    0.55736 elapsed seconds
Timing for main: time 2025-03-14_02:54:36 on domain   1:    2.44947 elapsed seconds
Timing for main: time 2025-03-14_02:54:54 on domain   2:    0.53980 elapsed seconds
Timing for main: time 2025-03-14_02:55:12 on domain   2:    0.53652 elapsed seconds
Timing for main: time 2025-03-14_02:55:30 on domain   2:    0.54191 elapsed seconds
Timing for main: time 2025-03-14_02:55:30 on domain   1:    2.43999 elapsed seconds
Timing for main: time 2025-03-14_02:55:48 on domain   2:    0.55117 elapsed seconds
Timing for main: time 2025-03-14_02:56:06 on domain   2:    0.53580 elapsed seconds
Timing for main: time 2025-03-14_02:56:24 on domain   2:    0.54331 elapsed seconds
Timing for main: time 2025-03-14_02:56:24 on domain   1:    2.46622 elapsed seconds
Timing for main: time 2025-03-14_02:56:42 on domain   2:    0.54965 elapsed seconds
Timing for main: time 2025-03-14_02:57:00 on domain   2:    0.53795 elapsed seconds
Timing for main: time 2025-03-14_02:57:18 on domain   2:    0.55141 elapsed seconds
Timing for main: time 2025-03-14_02:57:18 on domain   1:    2.46965 elapsed seconds
Timing for main: time 2025-03-14_02:57:36 on domain   2:    0.54646 elapsed seconds
Timing for main: time 2025-03-14_02:57:54 on domain   2:    0.53539 elapsed seconds
Timing for main: time 2025-03-14_02:58:12 on domain   2:    0.53515 elapsed seconds
Timing for main: time 2025-03-14_02:58:12 on domain   1:    2.46400 elapsed seconds
Timing for main: time 2025-03-14_02:58:30 on domain   2:    0.54159 elapsed seconds
Timing for main: time 2025-03-14_02:58:48 on domain   2:    0.54375 elapsed seconds
Timing for main: time 2025-03-14_02:59:06 on domain   2:    0.53964 elapsed seconds
Timing for main: time 2025-03-14_02:59:06 on domain   1:    2.44416 elapsed seconds
Timing for main: time 2025-03-14_02:59:24 on domain   2:    0.54051 elapsed seconds
Timing for main: time 2025-03-14_02:59:42 on domain   2:    0.55987 elapsed seconds
Timing for main: time 2025-03-14_03:00:00 on domain   2:    0.54015 elapsed seconds
Timing for main: time 2025-03-14_03:00:00 on domain   1:    2.46292 elapsed seconds
Timing for Writing wrfout_d01_2025-03-14_03:00:00 for domain        1:    1.98752 elapsed seconds
Timing for Writing wrfout_d02_2025-03-14_03:00:00 for domain        2:    2.08848 elapsed seconds
Timing for main: time 2025-03-14_03:00:18 on domain   2:    4.06595 elapsed seconds
Timing for main: time 2025-03-14_03:00:36 on domain   2:    0.54256 elapsed seconds
Timing for main: time 2025-03-14_03:00:54 on domain   2:    0.54578 elapsed seconds
Timing for main: time 2025-03-14_03:00:54 on domain   1:    7.95057 elapsed seconds
Timing for main: time 2025-03-14_03:01:12 on domain   2:    0.55428 elapsed seconds
Timing for main: time 2025-03-14_03:01:30 on domain   2:    0.53703 elapsed seconds
Timing for main: time 2025-03-14_03:01:48 on domain   2:    0.55462 elapsed seconds
Timing for main: time 2025-03-14_03:01:48 on domain   1:    2.46614 elapsed seconds
Timing for main: time 2025-03-14_03:02:06 on domain   2:    0.53773 elapsed seconds
Timing for main: time 2025-03-14_03:02:24 on domain   2:    0.54998 elapsed seconds
Timing for main: time 2025-03-14_03:02:42 on domain   2:    0.53597 elapsed seconds
Timing for main: time 2025-03-14_03:02:42 on domain   1:    2.47631 elapsed seconds
Timing for main: time 2025-03-14_03:03:00 on domain   2:    0.53923 elapsed seconds
Timing for main: time 2025-03-14_03:03:18 on domain   2:    0.53600 elapsed seconds
Timing for main: time 2025-03-14_03:03:36 on domain   2:    0.53585 elapsed seconds
Timing for main: time 2025-03-14_03:03:36 on domain   1:    2.44679 elapsed seconds
Timing for main: time 2025-03-14_03:03:54 on domain   2:    0.54339 elapsed seconds
Timing for main: time 2025-03-14_03:04:12 on domain   2:    0.54890 elapsed seconds
Timing for main: time 2025-03-14_03:04:30 on domain   2:    0.60666 elapsed seconds
Timing for main: time 2025-03-14_03:04:30 on domain   1:    3.66760 elapsed seconds
Timing for main: time 2025-03-14_03:04:48 on domain   2:    0.53899 elapsed seconds
Timing for main: time 2025-03-14_03:05:06 on domain   2:    0.56199 elapsed seconds
Timing for main: time 2025-03-14_03:05:24 on domain   2:    0.54074 elapsed seconds
Timing for main: time 2025-03-14_03:05:24 on domain   1:    2.46596 elapsed seconds
Timing for main: time 2025-03-14_03:05:42 on domain   2:    0.53948 elapsed seconds
Timing for main: time 2025-03-14_03:06:00 on domain   2:    0.54416 elapsed seconds
Timing for main: time 2025-03-14_03:06:18 on domain   2:    0.53973 elapsed seconds
Timing for main: time 2025-03-14_03:06:18 on domain   1:    2.44652 elapsed seconds
Timing for main: time 2025-03-14_03:06:36 on domain   2:    0.54945 elapsed seconds
Timing for main: time 2025-03-14_03:06:54 on domain   2:    0.53883 elapsed seconds
Timing for main: time 2025-03-14_03:07:12 on domain   2:    0.54031 elapsed seconds
Timing for main: time 2025-03-14_03:07:12 on domain   1:    2.44633 elapsed seconds
Timing for main: time 2025-03-14_03:07:30 on domain   2:    0.54161 elapsed seconds
Timing for main: time 2025-03-14_03:07:48 on domain   2:    0.53734 elapsed seconds
Timing for main: time 2025-03-14_03:08:06 on domain   2:    0.53899 elapsed seconds
Timing for main: time 2025-03-14_03:08:06 on domain   1:    2.43865 elapsed seconds
Timing for main: time 2025-03-14_03:08:24 on domain   2:    0.53954 elapsed seconds
[...]
Timing for main: time 2025-03-17_23:07:30 on domain   2:    0.59884 elapsed seconds
Timing for main: time 2025-03-17_23:07:48 on domain   2:    0.59931 elapsed seconds
Timing for main: time 2025-03-17_23:07:48 on domain   1:    3.94401 elapsed seconds
Timing for main: time 2025-03-17_23:08:06 on domain   2:    0.68255 elapsed seconds
Timing for main: time 2025-03-17_23:08:24 on domain   2:    0.60458 elapsed seconds
Timing for main: time 2025-03-17_23:08:42 on domain   2:    0.59959 elapsed seconds
Timing for main: time 2025-03-17_23:08:42 on domain   1:    2.82328 elapsed seconds
Timing for main: time 2025-03-17_23:09:00 on domain   2:    0.60248 elapsed seconds
Timing for main: time 2025-03-17_23:09:18 on domain   2:    0.60634 elapsed seconds
Timing for main: time 2025-03-17_23:09:36 on domain   2:    0.60489 elapsed seconds
Timing for main: time 2025-03-17_23:09:36 on domain   1:    2.68244 elapsed seconds
Timing for main: time 2025-03-17_23:09:54 on domain   2:    0.60537 elapsed seconds
Timing for main: time 2025-03-17_23:10:12 on domain   2:    0.59820 elapsed seconds
Timing for main: time 2025-03-17_23:10:30 on domain   2:    0.59948 elapsed seconds
Timing for main: time 2025-03-17_23:10:30 on domain   1:    2.67388 elapsed seconds
Timing for main: time 2025-03-17_23:10:48 on domain   2:    0.60694 elapsed seconds
Timing for main: time 2025-03-17_23:11:06 on domain   2:    0.60140 elapsed seconds
Timing for main: time 2025-03-17_23:11:24 on domain   2:    0.59938 elapsed seconds
Timing for main: time 2025-03-17_23:11:24 on domain   1:    2.67243 elapsed seconds
Timing for main: time 2025-03-17_23:11:42 on domain   2:    0.61593 elapsed seconds
Timing for main: time 2025-03-17_23:12:00 on domain   2:    0.64781 elapsed seconds
Timing for main: time 2025-03-17_23:12:18 on domain   2:    0.60128 elapsed seconds
Timing for main: time 2025-03-17_23:12:18 on domain   1:    2.75527 elapsed seconds
Timing for main: time 2025-03-17_23:12:36 on domain   2:    0.60277 elapsed seconds
Timing for main: time 2025-03-17_23:12:54 on domain   2:    0.60578 elapsed seconds
Timing for main: time 2025-03-17_23:13:12 on domain   2:    0.59845 elapsed seconds
Timing for main: time 2025-03-17_23:13:12 on domain   1:    2.69601 elapsed seconds
Timing for main: time 2025-03-17_23:13:30 on domain   2:    0.60748 elapsed seconds
Timing for main: time 2025-03-17_23:13:48 on domain   2:    0.59888 elapsed seconds
Timing for main: time 2025-03-17_23:14:06 on domain   2:    0.59939 elapsed seconds
Timing for main: time 2025-03-17_23:14:06 on domain   1:    2.67192 elapsed seconds
Timing for main: time 2025-03-17_23:14:24 on domain   2:    0.61281 elapsed seconds
Timing for main: time 2025-03-17_23:14:42 on domain   2:    0.60213 elapsed seconds
Timing for main: time 2025-03-17_23:15:00 on domain   2:    0.60579 elapsed seconds
Timing for main: time 2025-03-17_23:15:00 on domain   1:    2.72178 elapsed seconds
Timing for main: time 2025-03-17_23:15:18 on domain   2:    1.90805 elapsed seconds
Timing for main: time 2025-03-17_23:15:36 on domain   2:    0.59807 elapsed seconds
Timing for main: time 2025-03-17_23:15:54 on domain   2:    0.59601 elapsed seconds
Timing for main: time 2025-03-17_23:15:54 on domain   1:    3.97000 elapsed seconds
Timing for main: time 2025-03-17_23:16:12 on domain   2:    0.60836 elapsed seconds
Timing for main: time 2025-03-17_23:16:30 on domain   2:    0.62181 elapsed seconds
Timing for main: time 2025-03-17_23:16:48 on domain   2:    0.63246 elapsed seconds
Timing for main: time 2025-03-17_23:16:48 on domain   1:    2.76132 elapsed seconds
Timing for main: time 2025-03-17_23:17:06 on domain   2:    0.60273 elapsed seconds
Timing for main: time 2025-03-17_23:17:24 on domain   2:    0.59464 elapsed seconds
Timing for main: time 2025-03-17_23:17:42 on domain   2:    0.59999 elapsed seconds
Timing for main: time 2025-03-17_23:17:42 on domain   1:    2.66626 elapsed seconds
Timing for main: time 2025-03-17_23:18:00 on domain   2:    0.60415 elapsed seconds
Timing for main: time 2025-03-17_23:18:18 on domain   2:    0.60026 elapsed seconds
Timing for main: time 2025-03-17_23:18:36 on domain   2:    0.59615 elapsed seconds
Timing for main: time 2025-03-17_23:18:36 on domain   1:    2.70384 elapsed seconds
Timing for main: time 2025-03-17_23:18:54 on domain   2:    0.60451 elapsed seconds
Timing for main: time 2025-03-17_23:19:12 on domain   2:    0.59941 elapsed seconds
Timing for main: time 2025-03-17_23:19:30 on domain   2:    0.59826 elapsed seconds
Timing for main: time 2025-03-17_23:19:30 on domain   1:    2.69230 elapsed seconds
Timing for main: time 2025-03-17_23:19:48 on domain   2:    0.64191 elapsed seconds
Timing for main: time 2025-03-17_23:20:06 on domain   2:    0.59841 elapsed seconds
Timing for main: time 2025-03-17_23:20:24 on domain   2:    0.59934 elapsed seconds
Timing for main: time 2025-03-17_23:20:24 on domain   1:    2.72271 elapsed seconds
Timing for main: time 2025-03-17_23:20:42 on domain   2:    0.61813 elapsed seconds
Timing for main: time 2025-03-17_23:21:00 on domain   2:    0.59895 elapsed seconds
Timing for main: time 2025-03-17_23:21:18 on domain   2:    0.59850 elapsed seconds
Timing for main: time 2025-03-17_23:21:18 on domain   1:    2.67614 elapsed seconds
Timing for main: time 2025-03-17_23:21:36 on domain   2:    0.63086 elapsed seconds
Timing for main: time 2025-03-17_23:21:54 on domain   2:    0.59679 elapsed seconds
Timing for main: time 2025-03-17_23:22:12 on domain   2:    0.60049 elapsed seconds
Timing for main: time 2025-03-17_23:22:12 on domain   1:    2.71814 elapsed seconds
Timing for main: time 2025-03-17_23:22:30 on domain   2:    0.60373 elapsed seconds
Timing for main: time 2025-03-17_23:22:48 on domain   2:    0.60039 elapsed seconds
Timing for main: time 2025-03-17_23:23:06 on domain   2:    0.59901 elapsed seconds
Timing for main: time 2025-03-17_23:23:06 on domain   1:    3.91881 elapsed seconds
Timing for main: time 2025-03-17_23:23:24 on domain   2:    0.60747 elapsed seconds
Timing for main: time 2025-03-17_23:23:42 on domain   2:    0.59842 elapsed seconds
Timing for main: time 2025-03-17_23:24:00 on domain   2:    0.60354 elapsed seconds
Timing for main: time 2025-03-17_23:24:00 on domain   1:    2.70848 elapsed seconds
Timing for main: time 2025-03-17_23:24:18 on domain   2:    0.60913 elapsed seconds
Timing for main: time 2025-03-17_23:24:36 on domain   2:    0.65591 elapsed seconds
Timing for main: time 2025-03-17_23:24:54 on domain   2:    0.60148 elapsed seconds
Timing for main: time 2025-03-17_23:24:54 on domain   1:    2.73074 elapsed seconds
Timing for main: time 2025-03-17_23:25:12 on domain   2:    0.60300 elapsed seconds
Timing for main: time 2025-03-17_23:25:30 on domain   2:    0.60294 elapsed seconds
Timing for main: time 2025-03-17_23:25:48 on domain   2:    0.60037 elapsed seconds
Timing for main: time 2025-03-17_23:25:48 on domain   1:    2.69212 elapsed seconds
Timing for main: time 2025-03-17_23:26:06 on domain   2:    0.60344 elapsed seconds
Timing for main: time 2025-03-17_23:26:24 on domain   2:    0.60117 elapsed seconds
Timing for main: time 2025-03-17_23:26:42 on domain   2:    0.60352 elapsed seconds
Timing for main: time 2025-03-17_23:26:42 on domain   1:    2.68458 elapsed seconds
Timing for main: time 2025-03-17_23:27:00 on domain   2:    0.60160 elapsed seconds
Timing for main: time 2025-03-17_23:27:18 on domain   2:    0.60057 elapsed seconds
Timing for main: time 2025-03-17_23:27:36 on domain   2:    0.60850 elapsed seconds
Timing for main: time 2025-03-17_23:27:36 on domain   1:    2.68666 elapsed seconds
Timing for main: time 2025-03-17_23:27:54 on domain   2:    0.60427 elapsed seconds
Timing for main: time 2025-03-17_23:28:12 on domain   2:    0.60144 elapsed seconds
Timing for main: time 2025-03-17_23:28:30 on domain   2:    0.60021 elapsed seconds
Timing for main: time 2025-03-17_23:28:30 on domain   1:    2.71263 elapsed seconds
Timing for main: time 2025-03-17_23:28:48 on domain   2:    0.60450 elapsed seconds
Timing for main: time 2025-03-17_23:29:06 on domain   2:    0.60239 elapsed seconds
Timing for main: time 2025-03-17_23:29:24 on domain   2:    0.59639 elapsed seconds
Timing for main: time 2025-03-17_23:29:24 on domain   1:    2.69309 elapsed seconds
Timing for main: time 2025-03-17_23:29:42 on domain   2:    0.61687 elapsed seconds
Timing for main: time 2025-03-17_23:30:00 on domain   2:    0.60348 elapsed seconds
Timing for main: time 2025-03-17_23:30:18 on domain   2:    1.93635 elapsed seconds
Timing for main: time 2025-03-17_23:30:18 on domain   1:    4.07268 elapsed seconds
Timing for main: time 2025-03-17_23:30:36 on domain   2:    0.60371 elapsed seconds
Timing for main: time 2025-03-17_23:30:54 on domain   2:    0.59924 elapsed seconds
Timing for main: time 2025-03-17_23:31:12 on domain   2:    0.59781 elapsed seconds
Timing for main: time 2025-03-17_23:31:12 on domain   1:    2.66651 elapsed seconds
Timing for main: time 2025-03-17_23:31:30 on domain   2:    0.60892 elapsed seconds
Timing for main: time 2025-03-17_23:31:48 on domain   2:    0.59950 elapsed seconds
Timing for main: time 2025-03-17_23:32:06 on domain   2:    0.60573 elapsed seconds
Timing for main: time 2025-03-17_23:32:06 on domain   1:    2.67769 elapsed seconds
Timing for main: time 2025-03-17_23:32:24 on domain   2:    0.60572 elapsed seconds
Timing for main: time 2025-03-17_23:32:42 on domain   2:    0.59957 elapsed seconds
Timing for main: time 2025-03-17_23:33:00 on domain   2:    0.60086 elapsed seconds
Timing for main: time 2025-03-17_23:33:00 on domain   1:    2.68207 elapsed seconds
Timing for main: time 2025-03-17_23:33:18 on domain   2:    0.60775 elapsed seconds
Timing for main: time 2025-03-17_23:33:36 on domain   2:    0.59961 elapsed seconds
Timing for main: time 2025-03-17_23:33:54 on domain   2:    0.60540 elapsed seconds
Timing for main: time 2025-03-17_23:33:54 on domain   1:    2.67644 elapsed seconds
Timing for main: time 2025-03-17_23:34:12 on domain   2:    0.60595 elapsed seconds
Timing for main: time 2025-03-17_23:34:30 on domain   2:    0.60013 elapsed seconds
Timing for main: time 2025-03-17_23:34:48 on domain   2:    0.59968 elapsed seconds
Timing for main: time 2025-03-17_23:34:48 on domain   1:    2.69759 elapsed seconds
Timing for main: time 2025-03-17_23:35:06 on domain   2:    0.60408 elapsed seconds
Timing for main: time 2025-03-17_23:35:24 on domain   2:    0.60194 elapsed seconds
Timing for main: time 2025-03-17_23:35:42 on domain   2:    0.59924 elapsed seconds
Timing for main: time 2025-03-17_23:35:42 on domain   1:    2.72263 elapsed seconds
Timing for main: time 2025-03-17_23:36:00 on domain   2:    0.60433 elapsed seconds
Timing for main: time 2025-03-17_23:36:18 on domain   2:    0.60149 elapsed seconds
Timing for main: time 2025-03-17_23:36:36 on domain   2:    0.60131 elapsed seconds
Timing for main: time 2025-03-17_23:36:36 on domain   1:    2.67815 elapsed seconds
Timing for main: time 2025-03-17_23:36:54 on domain   2:    0.60948 elapsed seconds
Timing for main: time 2025-03-17_23:37:12 on domain   2:    0.60057 elapsed seconds
Timing for main: time 2025-03-17_23:37:30 on domain   2:    0.59951 elapsed seconds
Timing for main: time 2025-03-17_23:37:30 on domain   1:    2.67133 elapsed seconds
Timing for main: time 2025-03-17_23:37:48 on domain   2:    0.60363 elapsed seconds
Timing for main: time 2025-03-17_23:38:06 on domain   2:    0.65840 elapsed seconds
Timing for main: time 2025-03-17_23:38:24 on domain   2:    0.59985 elapsed seconds
Timing for main: time 2025-03-17_23:38:24 on domain   1:    3.91340 elapsed seconds
Timing for main: time 2025-03-17_23:38:42 on domain   2:    0.60422 elapsed seconds
Timing for main: time 2025-03-17_23:39:00 on domain   2:    0.59995 elapsed seconds
Timing for main: time 2025-03-17_23:39:18 on domain   2:    0.60085 elapsed seconds
Timing for main: time 2025-03-17_23:39:18 on domain   1:    2.67576 elapsed seconds
Timing for main: time 2025-03-17_23:39:36 on domain   2:    0.60270 elapsed seconds
Timing for main: time 2025-03-17_23:39:54 on domain   2:    0.59945 elapsed seconds
Timing for main: time 2025-03-17_23:40:12 on domain   2:    0.60630 elapsed seconds
Timing for main: time 2025-03-17_23:40:12 on domain   1:    2.77291 elapsed seconds
Timing for main: time 2025-03-17_23:40:30 on domain   2:    0.70167 elapsed seconds
Timing for main: time 2025-03-17_23:40:48 on domain   2:    0.60904 elapsed seconds
Timing for main: time 2025-03-17_23:41:06 on domain   2:    0.59823 elapsed seconds
Timing for main: time 2025-03-17_23:41:06 on domain   1:    2.79254 elapsed seconds
Timing for main: time 2025-03-17_23:41:24 on domain   2:    0.60355 elapsed seconds
Timing for main: time 2025-03-17_23:41:42 on domain   2:    0.61411 elapsed seconds
Timing for main: time 2025-03-17_23:42:00 on domain   2:    0.59896 elapsed seconds
Timing for main: time 2025-03-17_23:42:00 on domain   1:    2.68518 elapsed seconds
Timing for main: time 2025-03-17_23:42:18 on domain   2:    0.62478 elapsed seconds
Timing for main: time 2025-03-17_23:42:36 on domain   2:    0.59720 elapsed seconds
Timing for main: time 2025-03-17_23:42:54 on domain   2:    0.59890 elapsed seconds
Timing for main: time 2025-03-17_23:42:54 on domain   1:    2.68981 elapsed seconds
Timing for main: time 2025-03-17_23:43:12 on domain   2:    0.61650 elapsed seconds
Timing for main: time 2025-03-17_23:43:30 on domain   2:    0.59735 elapsed seconds
Timing for main: time 2025-03-17_23:43:48 on domain   2:    0.62811 elapsed seconds
Timing for main: time 2025-03-17_23:43:48 on domain   1:    2.70515 elapsed seconds
Timing for main: time 2025-03-17_23:44:06 on domain   2:    0.60077 elapsed seconds
Timing for main: time 2025-03-17_23:44:24 on domain   2:    0.59608 elapsed seconds
Timing for main: time 2025-03-17_23:44:42 on domain   2:    0.60320 elapsed seconds
Timing for main: time 2025-03-17_23:44:42 on domain   1:    2.66410 elapsed seconds
Timing for main: time 2025-03-17_23:45:00 on domain   2:    0.60487 elapsed seconds
Timing for main: time 2025-03-17_23:45:18 on domain   2:    1.92056 elapsed seconds
Timing for main: time 2025-03-17_23:45:36 on domain   2:    0.60127 elapsed seconds
Timing for main: time 2025-03-17_23:45:36 on domain   1:    4.01750 elapsed seconds
Timing for main: time 2025-03-17_23:45:54 on domain   2:    0.60395 elapsed seconds
Timing for main: time 2025-03-17_23:46:12 on domain   2:    0.60032 elapsed seconds
Timing for main: time 2025-03-17_23:46:30 on domain   2:    0.59605 elapsed seconds
Timing for main: time 2025-03-17_23:46:30 on domain   1:    2.66732 elapsed seconds
Timing for main: time 2025-03-17_23:46:48 on domain   2:    0.60268 elapsed seconds
Timing for main: time 2025-03-17_23:47:06 on domain   2:    0.59744 elapsed seconds
Timing for main: time 2025-03-17_23:47:24 on domain   2:    0.59557 elapsed seconds
Timing for main: time 2025-03-17_23:47:24 on domain   1:    2.66086 elapsed seconds
Timing for main: time 2025-03-17_23:47:42 on domain   2:    0.60669 elapsed seconds
Timing for main: time 2025-03-17_23:48:00 on domain   2:    0.59937 elapsed seconds
Timing for main: time 2025-03-17_23:48:18 on domain   2:    0.59826 elapsed seconds
Timing for main: time 2025-03-17_23:48:18 on domain   1:    2.69022 elapsed seconds
Timing for main: time 2025-03-17_23:48:36 on domain   2:    0.60092 elapsed seconds
Timing for main: time 2025-03-17_23:48:54 on domain   2:    0.59895 elapsed seconds
Timing for main: time 2025-03-17_23:49:12 on domain   2:    0.59977 elapsed seconds
Timing for main: time 2025-03-17_23:49:12 on domain   1:    2.70850 elapsed seconds
Timing for main: time 2025-03-17_23:49:30 on domain   2:    0.60693 elapsed seconds
Timing for main: time 2025-03-17_23:49:48 on domain   2:    0.59709 elapsed seconds
Timing for main: time 2025-03-17_23:50:06 on domain   2:    0.59634 elapsed seconds
Timing for main: time 2025-03-17_23:50:06 on domain   1:    2.68437 elapsed seconds
Timing for main: time 2025-03-17_23:50:24 on domain   2:    0.60485 elapsed seconds
Timing for main: time 2025-03-17_23:50:42 on domain   2:    0.59977 elapsed seconds
Timing for main: time 2025-03-17_23:51:00 on domain   2:    0.62339 elapsed seconds
Timing for main: time 2025-03-17_23:51:00 on domain   1:    2.72821 elapsed seconds
Timing for main: time 2025-03-17_23:51:18 on domain   2:    0.62365 elapsed seconds
Timing for main: time 2025-03-17_23:51:36 on domain   2:    0.60892 elapsed seconds
Timing for main: time 2025-03-17_23:51:54 on domain   2:    0.59815 elapsed seconds
Timing for main: time 2025-03-17_23:51:54 on domain   1:    2.70468 elapsed seconds
Timing for main: time 2025-03-17_23:52:12 on domain   2:    0.60399 elapsed seconds
Timing for main: time 2025-03-17_23:52:30 on domain   2:    0.59672 elapsed seconds
Timing for main: time 2025-03-17_23:52:48 on domain   2:    0.59899 elapsed seconds
Timing for main: time 2025-03-17_23:52:48 on domain   1:    2.67776 elapsed seconds
Timing for main: time 2025-03-17_23:53:06 on domain   2:    0.60147 elapsed seconds
Timing for main: time 2025-03-17_23:53:24 on domain   2:    0.63064 elapsed seconds
Timing for main: time 2025-03-17_23:53:42 on domain   2:    0.60312 elapsed seconds
Timing for main: time 2025-03-17_23:53:42 on domain   1:    3.90192 elapsed seconds
Timing for main: time 2025-03-17_23:54:00 on domain   2:    0.60473 elapsed seconds
Timing for main: time 2025-03-17_23:54:18 on domain   2:    0.59675 elapsed seconds
Timing for main: time 2025-03-17_23:54:36 on domain   2:    0.59785 elapsed seconds
Timing for main: time 2025-03-17_23:54:36 on domain   1:    2.66473 elapsed seconds
Timing for main: time 2025-03-17_23:54:54 on domain   2:    0.60459 elapsed seconds
Timing for main: time 2025-03-17_23:55:12 on domain   2:    0.59504 elapsed seconds
Timing for main: time 2025-03-17_23:55:30 on domain   2:    0.59628 elapsed seconds
Timing for main: time 2025-03-17_23:55:30 on domain   1:    2.66901 elapsed seconds
Timing for main: time 2025-03-17_23:55:48 on domain   2:    0.60351 elapsed seconds
Timing for main: time 2025-03-17_23:56:06 on domain   2:    0.59805 elapsed seconds
Timing for main: time 2025-03-17_23:56:24 on domain   2:    0.63431 elapsed seconds
Timing for main: time 2025-03-17_23:56:24 on domain   1:    2.72429 elapsed seconds
Timing for main: time 2025-03-17_23:56:42 on domain   2:    0.60270 elapsed seconds
Timing for main: time 2025-03-17_23:57:00 on domain   2:    0.59819 elapsed seconds
Timing for main: time 2025-03-17_23:57:18 on domain   2:    0.59934 elapsed seconds
Timing for main: time 2025-03-17_23:57:18 on domain   1:    2.66932 elapsed seconds
Timing for main: time 2025-03-17_23:57:36 on domain   2:    0.60446 elapsed seconds
Timing for main: time 2025-03-17_23:57:54 on domain   2:    0.60809 elapsed seconds
Timing for main: time 2025-03-17_23:58:12 on domain   2:    0.59638 elapsed seconds
Timing for main: time 2025-03-17_23:58:12 on domain   1:    2.67911 elapsed seconds
Timing for main: time 2025-03-17_23:58:30 on domain   2:    0.62680 elapsed seconds
Timing for main: time 2025-03-17_23:58:48 on domain   2:    0.59499 elapsed seconds
Timing for main: time 2025-03-17_23:59:06 on domain   2:    0.59494 elapsed seconds
Timing for main: time 2025-03-17_23:59:06 on domain   1:    2.68999 elapsed seconds
Timing for main: time 2025-03-17_23:59:24 on domain   2:    0.60421 elapsed seconds
Timing for main: time 2025-03-17_23:59:42 on domain   2:    0.59607 elapsed seconds
Timing for main: time 2025-03-18_00:00:00 on domain   2:    0.59469 elapsed seconds
Timing for Writing wrfout_d02_2025-03-18_00:00:00 for domain        2:    2.51032 elapsed seconds
Timing for main: time 2025-03-18_00:00:00 on domain   1:    5.18044 elapsed seconds
Timing for Writing wrfout_d01_2025-03-18_00:00:00 for domain        1:    2.41559 elapsed seconds
d01 2025-03-18_00:00:00 wrf: SUCCESS COMPLETE WRF
