taskid: 0 hostname: wrfteam4
Quilting with   1 groups of   0 I/O tasks.
 Ntasks in X            4 , ntasks in Y            5
  Domain # 1: dx =  9000.000 m
  Domain # 2: dx =  3000.000 m
WRF V4.6.0 MODEL
No git found or not a git repository, git commit version not available.
 *************************************
 Parent domain
 ids,ide,jds,jde            1         201           1         181
 ims,ime,jms,jme           -4          57          -4          43
 ips,ipe,jps,jpe            1          50           1          36
 *************************************
DYNAMICS OPTION: Eulerian Mass Coordinate
   alloc_space_field: domain            1 ,              93529468  bytes allocated
  med_initialdata_input: calling input_input
   Input data is acceptable to use: wrfinput_d01
 CURRENT DATE          = 2025-03-14_00:00:00
 SIMULATION START DATE = 2025-03-14_00:00:00
Timing for processing wrfinput file (stream 0) for domain        1:    0.81793 elapsed seconds
Max map factor in domain 1 =  1.01. Scale the dt in the model accordingly.
 D01: Time step                              =    54.0000000      (s)
 D01: Grid Distance                          =    9.00000000      (km)
 D01: Grid Distance Ratio dt/dx              =    6.00000000      (s/km)
 D01: Ratio Including Maximum Map Factor     =    6.04650259      (s/km)
 D01: NML defined reasonable_time_step_ratio =    6.00000000
 Climate GHG input from file from year         1765  to         2499
 CO2   range =    277.91300000000001        579.26400000000001       ppm
 N2O   range =    274.37200000000001        359.79800000000000       ppb
 CH4   range =    738.98599999999999        997.31100000000004       ppb
 CFC11 range =    0.0000000000000000        1.4000000000000000E-002  ppt
 CFC12 range =    0.0000000000000000        2.8809999999999998       ppt
 Normal ending of CAMtr_volume_mixing_ratio file
 GHG annual values from CAM trace gas file
 Year =         2025 , Julian day =           73
 CO2   =    4.2828365192688049E-004  volume mixing ratio
 N2O   =    3.3577984899461979E-007  volume mixing ratio
 CH4   =    1.9583345027477310E-006  volume mixing ratio
 CFC11 =    2.0512945332350967E-010  volume mixing ratio
 CFC12 =    4.7284755933180657E-010  volume mixing ratio
INPUT LandUse = "MODIFIED_IGBP_MODIS_NOAH"
 LANDUSE TYPE = "MODIFIED_IGBP_MODIS_NOAH" FOUND          61  CATEGORIES           2  SEASONS WATER CATEGORY =           17  SNOW CATEGORY =           15
INITIALIZE THREE Noah LSM RELATED TABLES
Skipping over LUTYPE = USGS
 LANDUSE TYPE = MODIFIED_IGBP_MODIS_NOAH FOUND          20  CATEGORIES
 INPUT SOIL TEXTURE CLASSIFICATION = STAS
 SOIL TEXTURE CLASSIFICATION = STAS FOUND          19  CATEGORIES
ThompMP: read qr_acr_qg_V4.dat     instead of computing
ThompMP: read qr_acr_qsV2.dat instead of computing
ThompMP: read freezeH2O.dat instead of computing
 *************************************
 Nesting domain
 ids,ide,jds,jde            1         202           1         199
 ims,ime,jms,jme           -4          63          -4          51
 ips,ipe,jps,jpe            1          51           1          40
 INTERMEDIATE domain
 ids,ide,jds,jde           33         105          26          97
 ims,ime,jms,jme           28          61          21          50
 ips,ipe,jps,jpe           31          51          24          40
 *************************************
d01 2025-03-14_00:00:00  alloc_space_field: domain            2 ,              12003360  bytes allocated
d01 2025-03-14_00:00:00  alloc_space_field: domain            2 ,             116719916  bytes allocated
d01 2025-03-14_00:00:00 *** Initializing nest domain # 2 from an input file. ***
d01 2025-03-14_00:00:00 med_initialdata_input: calling input_input
d01 2025-03-14_00:00:00  Input data is acceptable to use: wrfinput_d02
Timing for processing wrfinput file (stream 0) for domain        2:    0.82907 elapsed seconds
 Climate GHG input from file from year         1765  to         2499
 CO2   range =    277.91300000000001        579.26400000000001       ppm
 N2O   range =    274.37200000000001        359.79800000000000       ppb
 CH4   range =    738.98599999999999        997.31100000000004       ppb
 CFC11 range =    0.0000000000000000        1.4000000000000000E-002  ppt
 CFC12 range =    0.0000000000000000        2.8809999999999998       ppt
 Normal ending of CAMtr_volume_mixing_ratio file
 GHG annual values from CAM trace gas file
 Year =         2025 , Julian day =           73
 CO2   =    4.2828365192688049E-004  volume mixing ratio
 N2O   =    3.3577984899461979E-007  volume mixing ratio
 CH4   =    1.9583345027477310E-006  volume mixing ratio
 CFC11 =    2.0512945332350967E-010  volume mixing ratio
 CFC12 =    4.7284755933180657E-010  volume mixing ratio
INPUT LandUse = "MODIFIED_IGBP_MODIS_NOAH"
 LANDUSE TYPE = "MODIFIED_IGBP_MODIS_NOAH" FOUND          61  CATEGORIES           2  SEASONS WATER CATEGORY =           17  SNOW CATEGORY =           15
INITIALIZE THREE Noah LSM RELATED TABLES
Skipping over LUTYPE = USGS
 LANDUSE TYPE = MODIFIED_IGBP_MODIS_NOAH FOUND          20  CATEGORIES
 INPUT SOIL TEXTURE CLASSIFICATION = STAS
 SOIL TEXTURE CLASSIFICATION = STAS FOUND          19  CATEGORIES
 Climate GHG input from file from year         1765  to         2499
 CO2   range =    277.91300000000001        579.26400000000001       ppm
 N2O   range =    274.37200000000001        359.79800000000000       ppb
 CH4   range =    738.98599999999999        997.31100000000004       ppb
 CFC11 range =    0.0000000000000000        1.4000000000000000E-002  ppt
 CFC12 range =    0.0000000000000000        2.8809999999999998       ppt
 Normal ending of CAMtr_volume_mixing_ratio file
 GHG annual values from CAM trace gas file
 Year =         2025 , Julian day =           73
 CO2   =    4.2828365192688049E-004  volume mixing ratio
 N2O   =    3.3577984899461979E-007  volume mixing ratio
 CH4   =    1.9583345027477310E-006  volume mixing ratio
 CFC11 =    2.0512945332350967E-010  volume mixing ratio
 CFC12 =    4.7284755933180657E-010  volume mixing ratio
INPUT LandUse = "MODIFIED_IGBP_MODIS_NOAH"
 LANDUSE TYPE = "MODIFIED_IGBP_MODIS_NOAH" FOUND          61  CATEGORIES           2  SEASONS WATER CATEGORY =           17  SNOW CATEGORY =           15
INITIALIZE THREE Noah LSM RELATED TABLES
Skipping over LUTYPE = USGS
 LANDUSE TYPE = MODIFIED_IGBP_MODIS_NOAH FOUND          20  CATEGORIES
 INPUT SOIL TEXTURE CLASSIFICATION = STAS
 SOIL TEXTURE CLASSIFICATION = STAS FOUND          19  CATEGORIES
Max map factor in domain 1 =  1.01. Scale the dt in the model accordingly.
 D01: Time step                              =    54.0000000      (s)
 D01: Grid Distance                          =    9.00000000      (km)
 D01: Grid Distance Ratio dt/dx              =    6.00000000      (s/km)
 D01: Ratio Including Maximum Map Factor     =    6.04650259      (s/km)
 D01: NML defined reasonable_time_step_ratio =    6.00000000
 Climate GHG input from file from year         1765  to         2499
 CO2   range =    277.91300000000001        579.26400000000001       ppm
 N2O   range =    274.37200000000001        359.79800000000000       ppb
 CH4   range =    738.98599999999999        997.31100000000004       ppb
 CFC11 range =    0.0000000000000000        1.4000000000000000E-002  ppt
 CFC12 range =    0.0000000000000000        2.8809999999999998       ppt
 Normal ending of CAMtr_volume_mixing_ratio file
 GHG annual values from CAM trace gas file
 Year =         2025 , Julian day =           73
 CO2   =    4.2828365192688049E-004  volume mixing ratio
 N2O   =    3.3577984899461979E-007  volume mixing ratio
 CH4   =    1.9583345027477310E-006  volume mixing ratio
 CFC11 =    2.0512945332350967E-010  volume mixing ratio
 CFC12 =    4.7284755933180657E-010  volume mixing ratio
INPUT LandUse = "MODIFIED_IGBP_MODIS_NOAH"
 LANDUSE TYPE = "MODIFIED_IGBP_MODIS_NOAH" FOUND          61  CATEGORIES           2  SEASONS WATER CATEGORY =           17  SNOW CATEGORY =           15
INITIALIZE THREE Noah LSM RELATED TABLES
Skipping over LUTYPE = USGS
 LANDUSE TYPE = MODIFIED_IGBP_MODIS_NOAH FOUND          20  CATEGORIES
 INPUT SOIL TEXTURE CLASSIFICATION = STAS
 SOIL TEXTURE CLASSIFICATION = STAS FOUND          19  CATEGORIES
Timing for Writing wrfout_d01_2025-03-14_00:00:00 for domain        1:    1.97955 elapsed seconds
d01 2025-03-14_00:00:00  Input data is acceptable to use: wrfbdy_d01
Timing for processing lateral boundary for domain        1:    0.13046 elapsed seconds
 Tile Strategy is not specified. Assuming 1D-Y
WRF TILE   1 IS      1 IE     50 JS      1 JE     36
WRF NUMBER OF TILES =   1
d01 2025-03-14_00:00:00  ----------------------------------------
d01 2025-03-14_00:00:00  W-DAMPING  BEGINS AT W-COURANT NUMBER =    1.00000000
d01 2025-03-14_00:00:00  ----------------------------------------
Timing for Writing wrfout_d02_2025-03-14_00:00:00 for domain        2:    2.13050 elapsed seconds
 Tile Strategy is not specified. Assuming 1D-Y
WRF TILE   1 IS      1 IE     51 JS      1 JE     40
WRF NUMBER OF TILES =   1
Timing for main: time 2025-03-14_00:00:18 on domain   2:    3.64370 elapsed seconds
Timing for main: time 2025-03-14_00:00:36 on domain   2:    0.50789 elapsed seconds
Timing for main: time 2025-03-14_00:00:54 on domain   2:    0.51860 elapsed seconds
Timing for main: time 2025-03-14_00:00:54 on domain   1:   10.80242 elapsed seconds
Timing for main: time 2025-03-14_00:01:12 on domain   2:    0.51925 elapsed seconds
Timing for main: time 2025-03-14_00:01:30 on domain   2:    0.49737 elapsed seconds
Timing for main: time 2025-03-14_00:01:48 on domain   2:    0.49536 elapsed seconds
Timing for main: time 2025-03-14_00:01:48 on domain   1:    2.29916 elapsed seconds
Timing for main: time 2025-03-14_00:02:06 on domain   2:    0.50454 elapsed seconds
Timing for main: time 2025-03-14_00:02:24 on domain   2:    0.49935 elapsed seconds
Timing for main: time 2025-03-14_00:02:42 on domain   2:    0.50697 elapsed seconds
Timing for main: time 2025-03-14_00:02:42 on domain   1:    2.29165 elapsed seconds
Timing for main: time 2025-03-14_00:03:00 on domain   2:    0.55126 elapsed seconds
Timing for main: time 2025-03-14_00:03:18 on domain   2:    0.52427 elapsed seconds
Timing for main: time 2025-03-14_00:03:36 on domain   2:    0.49790 elapsed seconds
Timing for main: time 2025-03-14_00:03:36 on domain   1:    2.37546 elapsed seconds
Timing for main: time 2025-03-14_00:03:54 on domain   2:    0.49632 elapsed seconds
Timing for main: time 2025-03-14_00:04:12 on domain   2:    0.53369 elapsed seconds
Timing for main: time 2025-03-14_00:04:30 on domain   2:    0.50597 elapsed seconds
Timing for main: time 2025-03-14_00:04:30 on domain   1:    2.39342 elapsed seconds
Timing for main: time 2025-03-14_00:04:48 on domain   2:    0.49861 elapsed seconds
Timing for main: time 2025-03-14_00:05:06 on domain   2:    0.50018 elapsed seconds
Timing for main: time 2025-03-14_00:05:24 on domain   2:    0.50834 elapsed seconds
Timing for main: time 2025-03-14_00:05:24 on domain   1:    2.31255 elapsed seconds
Timing for main: time 2025-03-14_00:05:42 on domain   2:    0.50660 elapsed seconds
Timing for main: time 2025-03-14_00:06:00 on domain   2:    0.50055 elapsed seconds
Timing for main: time 2025-03-14_00:06:18 on domain   2:    0.50357 elapsed seconds
Timing for main: time 2025-03-14_00:06:18 on domain   1:    2.29745 elapsed seconds
Timing for main: time 2025-03-14_00:06:36 on domain   2:    0.49996 elapsed seconds
Timing for main: time 2025-03-14_00:06:54 on domain   2:    0.49627 elapsed seconds
Timing for main: time 2025-03-14_00:07:12 on domain   2:    0.53708 elapsed seconds
Timing for main: time 2025-03-14_00:07:12 on domain   1:    2.35039 elapsed seconds
Timing for main: time 2025-03-14_00:07:30 on domain   2:    0.50279 elapsed seconds
Timing for main: time 2025-03-14_00:07:48 on domain   2:    0.51820 elapsed seconds
Timing for main: time 2025-03-14_00:08:06 on domain   2:    0.50472 elapsed seconds
Timing for main: time 2025-03-14_00:08:06 on domain   1:    2.35968 elapsed seconds
Timing for main: time 2025-03-14_00:08:24 on domain   2:    0.51197 elapsed seconds
Timing for main: time 2025-03-14_00:08:42 on domain   2:    0.49718 elapsed seconds
Timing for main: time 2025-03-14_00:09:00 on domain   2:    0.49921 elapsed seconds
Timing for main: time 2025-03-14_00:09:00 on domain   1:    2.30664 elapsed seconds
Timing for main: time 2025-03-14_00:09:18 on domain   2:    0.52576 elapsed seconds
Timing for main: time 2025-03-14_00:09:36 on domain   2:    0.50004 elapsed seconds
Timing for main: time 2025-03-14_00:09:54 on domain   2:    0.50167 elapsed seconds
Timing for main: time 2025-03-14_00:09:54 on domain   1:    2.31899 elapsed seconds
Timing for main: time 2025-03-14_00:10:12 on domain   2:    0.56476 elapsed seconds
Timing for main: time 2025-03-14_00:10:30 on domain   2:    0.50586 elapsed seconds
Timing for main: time 2025-03-14_00:10:48 on domain   2:    0.51572 elapsed seconds
Timing for main: time 2025-03-14_00:10:48 on domain   1:    2.41149 elapsed seconds
Timing for main: time 2025-03-14_00:11:06 on domain   2:    0.50051 elapsed seconds
Timing for main: time 2025-03-14_00:11:24 on domain   2:    0.49784 elapsed seconds
Timing for main: time 2025-03-14_00:11:42 on domain   2:    0.49671 elapsed seconds
Timing for main: time 2025-03-14_00:11:42 on domain   1:    2.27847 elapsed seconds
Timing for main: time 2025-03-14_00:12:00 on domain   2:    0.49541 elapsed seconds
Timing for main: time 2025-03-14_00:12:18 on domain   2:    0.54327 elapsed seconds
Timing for main: time 2025-03-14_00:12:36 on domain   2:    0.50152 elapsed seconds
Timing for main: time 2025-03-14_00:12:36 on domain   1:    2.35455 elapsed seconds
Timing for main: time 2025-03-14_00:12:54 on domain   2:    0.50529 elapsed seconds
Timing for main: time 2025-03-14_00:13:12 on domain   2:    0.49765 elapsed seconds
Timing for main: time 2025-03-14_00:13:30 on domain   2:    0.51029 elapsed seconds
Timing for main: time 2025-03-14_00:13:30 on domain   1:    2.31329 elapsed seconds
Timing for main: time 2025-03-14_00:13:48 on domain   2:    0.51040 elapsed seconds
Timing for main: time 2025-03-14_00:14:06 on domain   2:    0.50292 elapsed seconds
Timing for main: time 2025-03-14_00:14:24 on domain   2:    0.49850 elapsed seconds
Timing for main: time 2025-03-14_00:14:24 on domain   1:    2.37397 elapsed seconds
Timing for main: time 2025-03-14_00:14:42 on domain   2:    0.51711 elapsed seconds
Timing for main: time 2025-03-14_00:15:00 on domain   2:    0.50343 elapsed seconds
Timing for main: time 2025-03-14_00:15:18 on domain   2:    1.40418 elapsed seconds
Timing for main: time 2025-03-14_00:15:18 on domain   1:    3.22737 elapsed seconds
Timing for main: time 2025-03-14_00:15:36 on domain   2:    0.53585 elapsed seconds
Timing for main: time 2025-03-14_00:15:54 on domain   2:    0.50642 elapsed seconds
Timing for main: time 2025-03-14_00:16:12 on domain   2:    0.60387 elapsed seconds
Timing for main: time 2025-03-14_00:16:12 on domain   1:    3.29973 elapsed seconds
Timing for main: time 2025-03-14_00:16:30 on domain   2:    0.53372 elapsed seconds
Timing for main: time 2025-03-14_00:16:48 on domain   2:    0.51216 elapsed seconds
Timing for main: time 2025-03-14_00:17:06 on domain   2:    0.50038 elapsed seconds
Timing for main: time 2025-03-14_00:17:06 on domain   1:    2.32838 elapsed seconds
Timing for main: time 2025-03-14_00:17:24 on domain   2:    0.52763 elapsed seconds
Timing for main: time 2025-03-14_00:17:42 on domain   2:    0.49658 elapsed seconds
Timing for main: time 2025-03-14_00:18:00 on domain   2:    0.50208 elapsed seconds
Timing for main: time 2025-03-14_00:18:00 on domain   1:    2.32701 elapsed seconds
Timing for main: time 2025-03-14_00:18:18 on domain   2:    0.50649 elapsed seconds
Timing for main: time 2025-03-14_00:18:36 on domain   2:    0.50502 elapsed seconds
Timing for main: time 2025-03-14_00:18:54 on domain   2:    0.50427 elapsed seconds
Timing for main: time 2025-03-14_00:18:54 on domain   1:    2.30293 elapsed seconds
Timing for main: time 2025-03-14_00:19:12 on domain   2:    0.51051 elapsed seconds
Timing for main: time 2025-03-14_00:19:30 on domain   2:    0.52572 elapsed seconds
Timing for main: time 2025-03-14_00:19:48 on domain   2:    0.51622 elapsed seconds
Timing for main: time 2025-03-14_00:19:48 on domain   1:    2.32764 elapsed seconds
Timing for main: time 2025-03-14_00:20:06 on domain   2:    0.50206 elapsed seconds
Timing for main: time 2025-03-14_00:20:24 on domain   2:    0.50013 elapsed seconds
Timing for main: time 2025-03-14_00:20:42 on domain   2:    0.49913 elapsed seconds
Timing for main: time 2025-03-14_00:20:42 on domain   1:    2.28514 elapsed seconds
Timing for main: time 2025-03-14_00:21:00 on domain   2:    0.50390 elapsed seconds
Timing for main: time 2025-03-14_00:21:18 on domain   2:    0.49717 elapsed seconds
Timing for main: time 2025-03-14_00:21:36 on domain   2:    0.49425 elapsed seconds
Timing for main: time 2025-03-14_00:21:36 on domain   1:    2.29983 elapsed seconds
Timing for main: time 2025-03-14_00:21:54 on domain   2:    0.50378 elapsed seconds
Timing for main: time 2025-03-14_00:22:12 on domain   2:    0.50499 elapsed seconds
Timing for main: time 2025-03-14_00:22:30 on domain   2:    0.50611 elapsed seconds
Timing for main: time 2025-03-14_00:22:30 on domain   1:    2.29566 elapsed seconds
Timing for main: time 2025-03-14_00:22:48 on domain   2:    0.51308 elapsed seconds
Timing for main: time 2025-03-14_00:23:06 on domain   2:    0.52184 elapsed seconds
Timing for main: time 2025-03-14_00:23:24 on domain   2:    0.49718 elapsed seconds
Timing for main: time 2025-03-14_00:23:24 on domain   1:    2.34483 elapsed seconds
Timing for main: time 2025-03-14_00:23:42 on domain   2:    0.50461 elapsed seconds
Timing for main: time 2025-03-14_00:24:00 on domain   2:    0.50306 elapsed seconds
Timing for main: time 2025-03-14_00:24:18 on domain   2:    0.51635 elapsed seconds
Timing for main: time 2025-03-14_00:24:18 on domain   1:    2.39480 elapsed seconds
Timing for main: time 2025-03-14_00:24:36 on domain   2:    0.50339 elapsed seconds
Timing for main: time 2025-03-14_00:24:54 on domain   2:    0.49734 elapsed seconds
Timing for main: time 2025-03-14_00:25:12 on domain   2:    0.49615 elapsed seconds
Timing for main: time 2025-03-14_00:25:12 on domain   1:    2.27434 elapsed seconds
Timing for main: time 2025-03-14_00:25:30 on domain   2:    0.49963 elapsed seconds
Timing for main: time 2025-03-14_00:25:48 on domain   2:    0.52327 elapsed seconds
Timing for main: time 2025-03-14_00:26:06 on domain   2:    0.49746 elapsed seconds
Timing for main: time 2025-03-14_00:26:06 on domain   1:    2.29734 elapsed seconds
Timing for main: time 2025-03-14_00:26:24 on domain   2:    0.50029 elapsed seconds
Timing for main: time 2025-03-14_00:26:42 on domain   2:    0.49974 elapsed seconds
Timing for main: time 2025-03-14_00:27:00 on domain   2:    0.49820 elapsed seconds
Timing for main: time 2025-03-14_00:27:00 on domain   1:    2.29434 elapsed seconds
Timing for main: time 2025-03-14_00:27:18 on domain   2:    0.49821 elapsed seconds
Timing for main: time 2025-03-14_00:27:36 on domain   2:    0.49950 elapsed seconds
Timing for main: time 2025-03-14_00:27:54 on domain   2:    0.49849 elapsed seconds
Timing for main: time 2025-03-14_00:27:54 on domain   1:    2.27738 elapsed seconds
Timing for main: time 2025-03-14_00:28:12 on domain   2:    0.50404 elapsed seconds
Timing for main: time 2025-03-14_00:28:30 on domain   2:    0.50158 elapsed seconds
Timing for main: time 2025-03-14_00:28:48 on domain   2:    0.54808 elapsed seconds
Timing for main: time 2025-03-14_00:28:48 on domain   1:    2.33045 elapsed seconds
Timing for main: time 2025-03-14_00:29:06 on domain   2:    0.52368 elapsed seconds
Timing for main: time 2025-03-14_00:29:24 on domain   2:    0.56874 elapsed seconds
Timing for main: time 2025-03-14_00:29:42 on domain   2:    0.49741 elapsed seconds
Timing for main: time 2025-03-14_00:29:42 on domain   1:    2.36883 elapsed seconds
Timing for main: time 2025-03-14_00:30:00 on domain   2:    0.49851 elapsed seconds
Timing for main: time 2025-03-14_00:30:18 on domain   2:    1.38541 elapsed seconds
Timing for main: time 2025-03-14_00:30:36 on domain   2:    0.49846 elapsed seconds
Timing for main: time 2025-03-14_00:30:36 on domain   1:    3.16492 elapsed seconds
Timing for main: time 2025-03-14_00:30:54 on domain   2:    0.49695 elapsed seconds
Timing for main: time 2025-03-14_00:31:12 on domain   2:    0.49679 elapsed seconds
Timing for main: time 2025-03-14_00:31:30 on domain   2:    0.50130 elapsed seconds
Timing for main: time 2025-03-14_00:31:30 on domain   1:    3.10840 elapsed seconds
Timing for main: time 2025-03-14_00:31:48 on domain   2:    0.50585 elapsed seconds
Timing for main: time 2025-03-14_00:32:06 on domain   2:    0.50069 elapsed seconds
Timing for main: time 2025-03-14_00:32:24 on domain   2:    0.50555 elapsed seconds
Timing for main: time 2025-03-14_00:32:24 on domain   1:    2.35204 elapsed seconds
Timing for main: time 2025-03-14_00:32:42 on domain   2:    0.49939 elapsed seconds
Timing for main: time 2025-03-14_00:33:00 on domain   2:    0.49689 elapsed seconds
Timing for main: time 2025-03-14_00:33:18 on domain   2:    0.51116 elapsed seconds
Timing for main: time 2025-03-14_00:33:18 on domain   1:    2.29273 elapsed seconds
Timing for main: time 2025-03-14_00:33:36 on domain   2:    0.50029 elapsed seconds
Timing for main: time 2025-03-14_00:33:54 on domain   2:    0.49435 elapsed seconds
Timing for main: time 2025-03-14_00:34:12 on domain   2:    0.50144 elapsed seconds
Timing for main: time 2025-03-14_00:34:12 on domain   1:    2.27209 elapsed seconds
Timing for main: time 2025-03-14_00:34:30 on domain   2:    0.50228 elapsed seconds
Timing for main: time 2025-03-14_00:34:48 on domain   2:    0.50732 elapsed seconds
Timing for main: time 2025-03-14_00:35:06 on domain   2:    0.50385 elapsed seconds
Timing for main: time 2025-03-14_00:35:06 on domain   1:    2.28913 elapsed seconds
Timing for main: time 2025-03-14_00:35:24 on domain   2:    0.50565 elapsed seconds
Timing for main: time 2025-03-14_00:35:42 on domain   2:    0.49963 elapsed seconds
Timing for main: time 2025-03-14_00:36:00 on domain   2:    0.50901 elapsed seconds
Timing for main: time 2025-03-14_00:36:00 on domain   1:    2.31232 elapsed seconds
Timing for main: time 2025-03-14_00:36:18 on domain   2:    0.50392 elapsed seconds
Timing for main: time 2025-03-14_00:36:36 on domain   2:    0.49866 elapsed seconds
Timing for main: time 2025-03-14_00:36:54 on domain   2:    0.49611 elapsed seconds
Timing for main: time 2025-03-14_00:36:54 on domain   1:    2.28943 elapsed seconds
Timing for main: time 2025-03-14_00:37:12 on domain   2:    0.49705 elapsed seconds
Timing for main: time 2025-03-14_00:37:30 on domain   2:    0.51048 elapsed seconds
Timing for main: time 2025-03-14_00:37:48 on domain   2:    0.49727 elapsed seconds
Timing for main: time 2025-03-14_00:37:48 on domain   1:    2.34019 elapsed seconds
Timing for main: time 2025-03-14_00:38:06 on domain   2:    0.50507 elapsed seconds
Timing for main: time 2025-03-14_00:38:24 on domain   2:    0.50004 elapsed seconds
Timing for main: time 2025-03-14_00:38:42 on domain   2:    0.50677 elapsed seconds
Timing for main: time 2025-03-14_00:38:42 on domain   1:    2.33275 elapsed seconds
Timing for main: time 2025-03-14_00:39:00 on domain   2:    0.51736 elapsed seconds
Timing for main: time 2025-03-14_00:39:18 on domain   2:    0.50008 elapsed seconds
Timing for main: time 2025-03-14_00:39:36 on domain   2:    0.49832 elapsed seconds
Timing for main: time 2025-03-14_00:39:36 on domain   1:    2.31593 elapsed seconds
Timing for main: time 2025-03-14_00:39:54 on domain   2:    0.49895 elapsed seconds
Timing for main: time 2025-03-14_00:40:12 on domain   2:    0.49873 elapsed seconds
Timing for main: time 2025-03-14_00:40:30 on domain   2:    0.49705 elapsed seconds
Timing for main: time 2025-03-14_00:40:30 on domain   1:    2.26952 elapsed seconds
Timing for main: time 2025-03-14_00:40:48 on domain   2:    0.49711 elapsed seconds
Timing for main: time 2025-03-14_00:41:06 on domain   2:    0.53599 elapsed seconds
Timing for main: time 2025-03-14_00:41:24 on domain   2:    0.49660 elapsed seconds
Timing for main: time 2025-03-14_00:41:24 on domain   1:    2.31338 elapsed seconds
Timing for main: time 2025-03-14_00:41:42 on domain   2:    0.50043 elapsed seconds
Timing for main: time 2025-03-14_00:42:00 on domain   2:    0.49556 elapsed seconds
Timing for main: time 2025-03-14_00:42:18 on domain   2:    0.52361 elapsed seconds
Timing for main: time 2025-03-14_00:42:18 on domain   1:    2.30338 elapsed seconds
Timing for main: time 2025-03-14_00:42:36 on domain   2:    0.49753 elapsed seconds
Timing for main: time 2025-03-14_00:42:54 on domain   2:    0.50019 elapsed seconds
Timing for main: time 2025-03-14_00:43:12 on domain   2:    0.50282 elapsed seconds
Timing for main: time 2025-03-14_00:43:12 on domain   1:    2.31283 elapsed seconds
Timing for main: time 2025-03-14_00:43:30 on domain   2:    0.51401 elapsed seconds
Timing for main: time 2025-03-14_00:43:48 on domain   2:    0.51335 elapsed seconds
Timing for main: time 2025-03-14_00:44:06 on domain   2:    0.49593 elapsed seconds
Timing for main: time 2025-03-14_00:44:06 on domain   1:    2.30307 elapsed seconds
Timing for main: time 2025-03-14_00:44:24 on domain   2:    0.50594 elapsed seconds
Timing for main: time 2025-03-14_00:44:42 on domain   2:    0.50554 elapsed seconds
Timing for main: time 2025-03-14_00:45:00 on domain   2:    0.52729 elapsed seconds
Timing for main: time 2025-03-14_00:45:00 on domain   1:    2.33031 elapsed seconds
Timing for main: time 2025-03-14_00:45:18 on domain   2:    1.45814 elapsed seconds
Timing for main: time 2025-03-14_00:45:36 on domain   2:    0.50165 elapsed seconds
Timing for main: time 2025-03-14_00:45:54 on domain   2:    0.49746 elapsed seconds
Timing for main: time 2025-03-14_00:45:54 on domain   1:    3.26828 elapsed seconds
Timing for main: time 2025-03-14_00:46:12 on domain   2:    0.49713 elapsed seconds
Timing for main: time 2025-03-14_00:46:30 on domain   2:    0.49610 elapsed seconds
Timing for main: time 2025-03-14_00:46:48 on domain   2:    0.50155 elapsed seconds
Timing for main: time 2025-03-14_00:46:48 on domain   1:    3.12154 elapsed seconds
Timing for main: time 2025-03-14_00:47:06 on domain   2:    0.54782 elapsed seconds
Timing for main: time 2025-03-14_00:47:24 on domain   2:    0.50444 elapsed seconds
Timing for main: time 2025-03-14_00:47:42 on domain   2:    0.49691 elapsed seconds
Timing for main: time 2025-03-14_00:47:42 on domain   1:    2.32757 elapsed seconds
Timing for main: time 2025-03-14_00:48:00 on domain   2:    0.50591 elapsed seconds
Timing for main: time 2025-03-14_00:48:18 on domain   2:    0.50681 elapsed seconds
Timing for main: time 2025-03-14_00:48:36 on domain   2:    0.49705 elapsed seconds
Timing for main: time 2025-03-14_00:48:36 on domain   1:    2.30795 elapsed seconds
Timing for main: time 2025-03-14_00:48:54 on domain   2:    0.49653 elapsed seconds
Timing for main: time 2025-03-14_00:49:12 on domain   2:    0.51023 elapsed seconds
Timing for main: time 2025-03-14_00:49:30 on domain   2:    0.50227 elapsed seconds
Timing for main: time 2025-03-14_00:49:30 on domain   1:    2.28648 elapsed seconds
Timing for main: time 2025-03-14_00:49:48 on domain   2:    0.50019 elapsed seconds
Timing for main: time 2025-03-14_00:50:06 on domain   2:    0.50231 elapsed seconds
Timing for main: time 2025-03-14_00:50:24 on domain   2:    0.49654 elapsed seconds
Timing for main: time 2025-03-14_00:50:24 on domain   1:    2.29393 elapsed seconds
Timing for main: time 2025-03-14_00:50:42 on domain   2:    0.51184 elapsed seconds
Timing for main: time 2025-03-14_00:51:00 on domain   2:    0.49884 elapsed seconds
Timing for main: time 2025-03-14_00:51:18 on domain   2:    0.49782 elapsed seconds
Timing for main: time 2025-03-14_00:51:18 on domain   1:    2.30906 elapsed seconds
Timing for main: time 2025-03-14_00:51:36 on domain   2:    0.52811 elapsed seconds
Timing for main: time 2025-03-14_00:51:54 on domain   2:    0.53362 elapsed seconds
Timing for main: time 2025-03-14_00:52:12 on domain   2:    0.51177 elapsed seconds
Timing for main: time 2025-03-14_00:52:12 on domain   1:    2.35027 elapsed seconds
Timing for main: time 2025-03-14_00:52:30 on domain   2:    0.51025 elapsed seconds
Timing for main: time 2025-03-14_00:52:48 on domain   2:    0.51672 elapsed seconds
Timing for main: time 2025-03-14_00:53:06 on domain   2:    0.50001 elapsed seconds
Timing for main: time 2025-03-14_00:53:06 on domain   1:    2.30257 elapsed seconds
Timing for main: time 2025-03-14_00:53:24 on domain   2:    0.50030 elapsed seconds
Timing for main: time 2025-03-14_00:53:42 on domain   2:    0.50167 elapsed seconds
Timing for main: time 2025-03-14_00:54:00 on domain   2:    0.50173 elapsed seconds
Timing for main: time 2025-03-14_00:54:00 on domain   1:    2.32135 elapsed seconds
Timing for main: time 2025-03-14_00:54:18 on domain   2:    0.51341 elapsed seconds
Timing for main: time 2025-03-14_00:54:36 on domain   2:    0.52951 elapsed seconds
Timing for main: time 2025-03-14_00:54:54 on domain   2:    0.50299 elapsed seconds
Timing for main: time 2025-03-14_00:54:54 on domain   1:    2.37986 elapsed seconds
Timing for main: time 2025-03-14_00:55:12 on domain   2:    0.50280 elapsed seconds
Timing for main: time 2025-03-14_00:55:30 on domain   2:    0.49618 elapsed seconds
Timing for main: time 2025-03-14_00:55:48 on domain   2:    0.49530 elapsed seconds
Timing for main: time 2025-03-14_00:55:48 on domain   1:    2.28523 elapsed seconds
Timing for main: time 2025-03-14_00:56:06 on domain   2:    0.49795 elapsed seconds
Timing for main: time 2025-03-14_00:56:24 on domain   2:    0.54378 elapsed seconds
Timing for main: time 2025-03-14_00:56:42 on domain   2:    0.51317 elapsed seconds
Timing for main: time 2025-03-14_00:56:42 on domain   1:    2.34230 elapsed seconds
Timing for main: time 2025-03-14_00:57:00 on domain   2:    0.50822 elapsed seconds
Timing for main: time 2025-03-14_00:57:18 on domain   2:    0.49656 elapsed seconds
Timing for main: time 2025-03-14_00:57:36 on domain   2:    0.52061 elapsed seconds
Timing for main: time 2025-03-14_00:57:36 on domain   1:    2.34233 elapsed seconds
Timing for main: time 2025-03-14_00:57:54 on domain   2:    0.49812 elapsed seconds
Timing for main: time 2025-03-14_00:58:12 on domain   2:    0.50499 elapsed seconds
Timing for main: time 2025-03-14_00:58:30 on domain   2:    0.49729 elapsed seconds
Timing for main: time 2025-03-14_00:58:30 on domain   1:    2.28736 elapsed seconds
Timing for main: time 2025-03-14_00:58:48 on domain   2:    0.50836 elapsed seconds
Timing for main: time 2025-03-14_00:59:06 on domain   2:    0.50475 elapsed seconds
Timing for main: time 2025-03-14_00:59:24 on domain   2:    0.49640 elapsed seconds
Timing for main: time 2025-03-14_00:59:24 on domain   1:    2.35539 elapsed seconds
Timing for main: time 2025-03-14_00:59:42 on domain   2:    0.54256 elapsed seconds
Timing for main: time 2025-03-14_01:00:00 on domain   2:    0.50381 elapsed seconds
Timing for Writing wrfout_d02_2025-03-14_01:00:00 for domain        2:    1.96611 elapsed seconds
Timing for main: time 2025-03-14_01:00:18 on domain   2:    3.39247 elapsed seconds
Timing for main: time 2025-03-14_01:00:18 on domain   1:    5.22934 elapsed seconds
Timing for Writing wrfout_d01_2025-03-14_01:00:18 for domain        1:    1.84139 elapsed seconds
Timing for main: time 2025-03-14_01:00:36 on domain   2:    0.50160 elapsed seconds
Timing for main: time 2025-03-14_01:00:54 on domain   2:    0.49625 elapsed seconds
Timing for main: time 2025-03-14_01:01:12 on domain   2:    0.50511 elapsed seconds
Timing for main: time 2025-03-14_01:01:12 on domain   1:    4.14938 elapsed seconds
Timing for main: time 2025-03-14_01:01:30 on domain   2:    0.50270 elapsed seconds
Timing for main: time 2025-03-14_01:01:48 on domain   2:    0.50133 elapsed seconds
Timing for main: time 2025-03-14_01:02:06 on domain   2:    0.49786 elapsed seconds
Timing for main: time 2025-03-14_01:02:06 on domain   1:    3.14609 elapsed seconds
Timing for main: time 2025-03-14_01:02:24 on domain   2:    0.50761 elapsed seconds
Timing for main: time 2025-03-14_01:02:42 on domain   2:    0.50522 elapsed seconds
Timing for main: time 2025-03-14_01:03:00 on domain   2:    0.50040 elapsed seconds
Timing for main: time 2025-03-14_01:03:00 on domain   1:    2.29606 elapsed seconds
Timing for main: time 2025-03-14_01:03:18 on domain   2:    0.49712 elapsed seconds
Timing for main: time 2025-03-14_01:03:36 on domain   2:    0.49599 elapsed seconds
Timing for main: time 2025-03-14_01:03:54 on domain   2:    0.49676 elapsed seconds
Timing for main: time 2025-03-14_01:03:54 on domain   1:    2.27529 elapsed seconds
Timing for main: time 2025-03-14_01:04:12 on domain   2:    0.49833 elapsed seconds
Timing for main: time 2025-03-14_01:04:30 on domain   2:    0.49533 elapsed seconds
Timing for main: time 2025-03-14_01:04:48 on domain   2:    0.49573 elapsed seconds
Timing for main: time 2025-03-14_01:04:48 on domain   1:    2.29094 elapsed seconds
Timing for main: time 2025-03-14_01:05:06 on domain   2:    0.50544 elapsed seconds
Timing for main: time 2025-03-14_01:05:24 on domain   2:    0.49705 elapsed seconds
Timing for main: time 2025-03-14_01:05:42 on domain   2:    0.49661 elapsed seconds
Timing for main: time 2025-03-14_01:05:42 on domain   1:    2.27586 elapsed seconds
Timing for main: time 2025-03-14_01:06:00 on domain   2:    0.50485 elapsed seconds
Timing for main: time 2025-03-14_01:06:18 on domain   2:    0.49767 elapsed seconds
Timing for main: time 2025-03-14_01:06:36 on domain   2:    0.49527 elapsed seconds
Timing for main: time 2025-03-14_01:06:36 on domain   1:    2.28616 elapsed seconds
Timing for main: time 2025-03-14_01:06:54 on domain   2:    0.50295 elapsed seconds
Timing for main: time 2025-03-14_01:07:12 on domain   2:    0.51689 elapsed seconds
Timing for main: time 2025-03-14_01:07:30 on domain   2:    0.51711 elapsed seconds
Timing for main: time 2025-03-14_01:07:30 on domain   1:    2.32631 elapsed seconds
Timing for main: time 2025-03-14_01:07:48 on domain   2:    0.49709 elapsed seconds
Timing for main: time 2025-03-14_01:08:06 on domain   2:    0.50159 elapsed seconds
Timing for main: time 2025-03-14_01:08:24 on domain   2:    0.51010 elapsed seconds
Timing for main: time 2025-03-14_01:08:24 on domain   1:    2.29606 elapsed seconds
Timing for main: time 2025-03-14_01:08:42 on domain   2:    0.50248 elapsed seconds
Timing for main: time 2025-03-14_01:09:00 on domain   2:    0.49601 elapsed seconds
Timing for main: time 2025-03-14_01:09:18 on domain   2:    0.49595 elapsed seconds
Timing for main: time 2025-03-14_01:09:18 on domain   1:    2.27113 elapsed seconds
Timing for main: time 2025-03-14_01:09:36 on domain   2:    0.49707 elapsed seconds
Timing for main: time 2025-03-14_01:09:54 on domain   2:    0.49781 elapsed seconds
Timing for main: time 2025-03-14_01:10:12 on domain   2:    0.49773 elapsed seconds
Timing for main: time 2025-03-14_01:10:12 on domain   1:    2.30404 elapsed seconds
Timing for main: time 2025-03-14_01:10:30 on domain   2:    0.49954 elapsed seconds
Timing for main: time 2025-03-14_01:10:48 on domain   2:    0.49799 elapsed seconds
Timing for main: time 2025-03-14_01:11:06 on domain   2:    0.49721 elapsed seconds
Timing for main: time 2025-03-14_01:11:06 on domain   1:    2.30995 elapsed seconds
Timing for main: time 2025-03-14_01:11:24 on domain   2:    0.51070 elapsed seconds
Timing for main: time 2025-03-14_01:11:42 on domain   2:    0.50319 elapsed seconds
Timing for main: time 2025-03-14_01:12:00 on domain   2:    0.49678 elapsed seconds
Timing for main: time 2025-03-14_01:12:00 on domain   1:    2.28645 elapsed seconds
Timing for main: time 2025-03-14_01:12:18 on domain   2:    0.50955 elapsed seconds
Timing for main: time 2025-03-14_01:12:36 on domain   2:    0.50112 elapsed seconds
Timing for main: time 2025-03-14_01:12:54 on domain   2:    0.49394 elapsed seconds
Timing for main: time 2025-03-14_01:12:54 on domain   1:    2.28056 elapsed seconds
Timing for main: time 2025-03-14_01:13:12 on domain   2:    0.53548 elapsed seconds
Timing for main: time 2025-03-14_01:13:30 on domain   2:    0.50102 elapsed seconds
Timing for main: time 2025-03-14_01:13:48 on domain   2:    0.49755 elapsed seconds
Timing for main: time 2025-03-14_01:13:48 on domain   1:    2.31458 elapsed seconds
Timing for main: time 2025-03-14_01:14:06 on domain   2:    0.49670 elapsed seconds
Timing for main: time 2025-03-14_01:14:24 on domain   2:    0.49511 elapsed seconds
Timing for main: time 2025-03-14_01:14:42 on domain   2:    0.50086 elapsed seconds
Timing for main: time 2025-03-14_01:14:42 on domain   1:    2.27117 elapsed seconds
Timing for main: time 2025-03-14_01:15:00 on domain   2:    0.49964 elapsed seconds
Timing for main: time 2025-03-14_01:15:18 on domain   2:    1.40711 elapsed seconds
Timing for main: time 2025-03-14_01:15:36 on domain   2:    0.50208 elapsed seconds
Timing for main: time 2025-03-14_01:15:36 on domain   1:    3.20075 elapsed seconds
Timing for main: time 2025-03-14_01:15:54 on domain   2:    0.51117 elapsed seconds
Timing for main: time 2025-03-14_01:16:12 on domain   2:    0.53538 elapsed seconds
Timing for main: time 2025-03-14_01:16:30 on domain   2:    0.50346 elapsed seconds
Timing for main: time 2025-03-14_01:16:30 on domain   1:    2.34324 elapsed seconds
Timing for main: time 2025-03-14_01:16:48 on domain   2:    0.52002 elapsed seconds
Timing for main: time 2025-03-14_01:17:06 on domain   2:    0.49910 elapsed seconds
Timing for main: time 2025-03-14_01:17:24 on domain   2:    0.53164 elapsed seconds
Timing for main: time 2025-03-14_01:17:24 on domain   1:    3.20172 elapsed seconds
Timing for main: time 2025-03-14_01:17:42 on domain   2:    0.49628 elapsed seconds
Timing for main: time 2025-03-14_01:18:00 on domain   2:    0.49877 elapsed seconds
Timing for main: time 2025-03-14_01:18:18 on domain   2:    0.50544 elapsed seconds
Timing for main: time 2025-03-14_01:18:18 on domain   1:    2.28339 elapsed seconds
Timing for main: time 2025-03-14_01:18:36 on domain   2:    0.49877 elapsed seconds
Timing for main: time 2025-03-14_01:18:54 on domain   2:    0.50086 elapsed seconds
Timing for main: time 2025-03-14_01:19:12 on domain   2:    0.51055 elapsed seconds
Timing for main: time 2025-03-14_01:19:12 on domain   1:    2.28638 elapsed seconds
Timing for main: time 2025-03-14_01:19:30 on domain   2:    0.52034 elapsed seconds
Timing for main: time 2025-03-14_01:19:48 on domain   2:    0.49827 elapsed seconds
Timing for main: time 2025-03-14_01:20:06 on domain   2:    0.49900 elapsed seconds
Timing for main: time 2025-03-14_01:20:06 on domain   1:    2.29346 elapsed seconds
Timing for main: time 2025-03-14_01:20:24 on domain   2:    0.50804 elapsed seconds
Timing for main: time 2025-03-14_01:20:42 on domain   2:    0.49670 elapsed seconds
Timing for main: time 2025-03-14_01:21:00 on domain   2:    0.49428 elapsed seconds
Timing for main: time 2025-03-14_01:21:00 on domain   1:    2.29344 elapsed seconds
Timing for main: time 2025-03-14_01:21:18 on domain   2:    0.50101 elapsed seconds
Timing for main: time 2025-03-14_01:21:36 on domain   2:    0.49830 elapsed seconds
Timing for main: time 2025-03-14_01:21:54 on domain   2:    0.55804 elapsed seconds
Timing for main: time 2025-03-14_01:21:54 on domain   1:    2.33530 elapsed seconds
Timing for main: time 2025-03-14_01:22:12 on domain   2:    0.50102 elapsed seconds
Timing for main: time 2025-03-14_01:22:30 on domain   2:    0.49786 elapsed seconds
Timing for main: time 2025-03-14_01:22:48 on domain   2:    0.50013 elapsed seconds
Timing for main: time 2025-03-14_01:22:48 on domain   1:    2.27845 elapsed seconds
Timing for main: time 2025-03-14_01:23:06 on domain   2:    0.49685 elapsed seconds
Timing for main: time 2025-03-14_01:23:24 on domain   2:    0.49702 elapsed seconds
Timing for main: time 2025-03-14_01:23:42 on domain   2:    0.49828 elapsed seconds
Timing for main: time 2025-03-14_01:23:42 on domain   1:    2.28111 elapsed seconds
Timing for main: time 2025-03-14_01:24:00 on domain   2:    0.52343 elapsed seconds
Timing for main: time 2025-03-14_01:24:18 on domain   2:    0.49696 elapsed seconds
Timing for main: time 2025-03-14_01:24:36 on domain   2:    0.49819 elapsed seconds
Timing for main: time 2025-03-14_01:24:36 on domain   1:    2.31458 elapsed seconds
Timing for main: time 2025-03-14_01:24:54 on domain   2:    0.50005 elapsed seconds
Timing for main: time 2025-03-14_01:25:12 on domain   2:    0.49526 elapsed seconds
Timing for main: time 2025-03-14_01:25:30 on domain   2:    0.49555 elapsed seconds
Timing for main: time 2025-03-14_01:25:30 on domain   1:    2.26587 elapsed seconds
Timing for main: time 2025-03-14_01:25:48 on domain   2:    0.49923 elapsed seconds
Timing for main: time 2025-03-14_01:26:06 on domain   2:    0.50447 elapsed seconds
Timing for main: time 2025-03-14_01:26:24 on domain   2:    0.50607 elapsed seconds
Timing for main: time 2025-03-14_01:26:24 on domain   1:    2.38154 elapsed seconds
Timing for main: time 2025-03-14_01:26:42 on domain   2:    0.50891 elapsed seconds
Timing for main: time 2025-03-14_01:27:00 on domain   2:    0.49692 elapsed seconds
Timing for main: time 2025-03-14_01:27:18 on domain   2:    0.49630 elapsed seconds
Timing for main: time 2025-03-14_01:27:18 on domain   1:    2.30234 elapsed seconds
Timing for main: time 2025-03-14_01:27:36 on domain   2:    0.50815 elapsed seconds
Timing for main: time 2025-03-14_01:27:54 on domain   2:    0.49692 elapsed seconds
Timing for main: time 2025-03-14_01:28:12 on domain   2:    0.49727 elapsed seconds
Timing for main: time 2025-03-14_01:28:12 on domain   1:    2.30838 elapsed seconds
Timing for main: time 2025-03-14_01:28:30 on domain   2:    0.49709 elapsed seconds
Timing for main: time 2025-03-14_01:28:48 on domain   2:    0.50389 elapsed seconds
Timing for main: time 2025-03-14_01:29:06 on domain   2:    0.51074 elapsed seconds
Timing for main: time 2025-03-14_01:29:06 on domain   1:    2.29086 elapsed seconds
Timing for main: time 2025-03-14_01:29:24 on domain   2:    0.50215 elapsed seconds
Timing for main: time 2025-03-14_01:29:42 on domain   2:    0.50020 elapsed seconds
Timing for main: time 2025-03-14_01:30:00 on domain   2:    0.49527 elapsed seconds
Timing for main: time 2025-03-14_01:30:00 on domain   1:    2.33128 elapsed seconds
Timing for main: time 2025-03-14_01:30:18 on domain   2:    1.41197 elapsed seconds
Timing for main: time 2025-03-14_01:30:36 on domain   2:    0.49969 elapsed seconds
Timing for main: time 2025-03-14_01:30:54 on domain   2:    0.49921 elapsed seconds
Timing for main: time 2025-03-14_01:30:54 on domain   1:    3.20684 elapsed seconds
Timing for main: time 2025-03-14_01:31:12 on domain   2:    0.50000 elapsed seconds
Timing for main: time 2025-03-14_01:31:30 on domain   2:    0.49765 elapsed seconds
Timing for main: time 2025-03-14_01:31:48 on domain   2:    0.52143 elapsed seconds
Timing for main: time 2025-03-14_01:31:48 on domain   1:    2.31510 elapsed seconds
Timing for main: time 2025-03-14_01:32:06 on domain   2:    0.50205 elapsed seconds
Timing for main: time 2025-03-14_01:32:24 on domain   2:    0.49793 elapsed seconds
Timing for main: time 2025-03-14_01:32:42 on domain   2:    0.50973 elapsed seconds
Timing for main: time 2025-03-14_01:32:42 on domain   1:    3.15542 elapsed seconds
Timing for main: time 2025-03-14_01:33:00 on domain   2:    0.51419 elapsed seconds
Timing for main: time 2025-03-14_01:33:18 on domain   2:    0.49753 elapsed seconds
Timing for main: time 2025-03-14_01:33:36 on domain   2:    0.50473 elapsed seconds
Timing for main: time 2025-03-14_01:33:36 on domain   1:    2.30102 elapsed seconds
Timing for main: time 2025-03-14_01:33:54 on domain   2:    0.50114 elapsed seconds
Timing for main: time 2025-03-14_01:34:12 on domain   2:    0.51300 elapsed seconds
Timing for main: time 2025-03-14_01:34:30 on domain   2:    0.49517 elapsed seconds
Timing for main: time 2025-03-14_01:34:30 on domain   1:    2.28871 elapsed seconds
Timing for main: time 2025-03-14_01:34:48 on domain   2:    0.55510 elapsed seconds
Timing for main: time 2025-03-14_01:35:06 on domain   2:    0.53245 elapsed seconds
Timing for main: time 2025-03-14_01:35:24 on domain   2:    0.49720 elapsed seconds
Timing for main: time 2025-03-14_01:35:24 on domain   1:    2.36814 elapsed seconds
Timing for main: time 2025-03-14_01:35:42 on domain   2:    0.49705 elapsed seconds
Timing for main: time 2025-03-14_01:36:00 on domain   2:    0.50474 elapsed seconds
Timing for main: time 2025-03-14_01:36:18 on domain   2:    0.51962 elapsed seconds
Timing for main: time 2025-03-14_01:36:18 on domain   1:    2.29987 elapsed seconds
Timing for main: time 2025-03-14_01:36:36 on domain   2:    0.50090 elapsed seconds
Timing for main: time 2025-03-14_01:36:54 on domain   2:    0.49764 elapsed seconds
Timing for main: time 2025-03-14_01:37:12 on domain   2:    0.49942 elapsed seconds
Timing for main: time 2025-03-14_01:37:12 on domain   1:    2.29114 elapsed seconds
Timing for main: time 2025-03-14_01:37:30 on domain   2:    0.50003 elapsed seconds
Timing for main: time 2025-03-14_01:37:48 on domain   2:    0.49922 elapsed seconds
Timing for main: time 2025-03-14_01:38:06 on domain   2:    0.49895 elapsed seconds
Timing for main: time 2025-03-14_01:38:06 on domain   1:    2.26846 elapsed seconds
Timing for main: time 2025-03-14_01:38:24 on domain   2:    0.50204 elapsed seconds
Timing for main: time 2025-03-14_01:38:42 on domain   2:    0.50247 elapsed seconds
Timing for main: time 2025-03-14_01:39:00 on domain   2:    0.49501 elapsed seconds
Timing for main: time 2025-03-14_01:39:00 on domain   1:    2.29734 elapsed seconds
Timing for main: time 2025-03-14_01:39:18 on domain   2:    0.49669 elapsed seconds
Timing for main: time 2025-03-14_01:39:36 on domain   2:    0.50050 elapsed seconds
Timing for main: time 2025-03-14_01:39:54 on domain   2:    0.49754 elapsed seconds
Timing for main: time 2025-03-14_01:39:54 on domain   1:    2.37607 elapsed seconds
Timing for main: time 2025-03-14_01:40:12 on domain   2:    0.49888 elapsed seconds
Timing for main: time 2025-03-14_01:40:30 on domain   2:    0.52664 elapsed seconds
Timing for main: time 2025-03-14_01:40:48 on domain   2:    0.50255 elapsed seconds
Timing for main: time 2025-03-14_01:40:48 on domain   1:    2.39959 elapsed seconds
Timing for main: time 2025-03-14_01:41:06 on domain   2:    0.50187 elapsed seconds
Timing for main: time 2025-03-14_01:41:24 on domain   2:    0.49797 elapsed seconds
Timing for main: time 2025-03-14_01:41:42 on domain   2:    0.49819 elapsed seconds
Timing for main: time 2025-03-14_01:41:42 on domain   1:    2.32190 elapsed seconds
Timing for main: time 2025-03-14_01:42:00 on domain   2:    0.49784 elapsed seconds
Timing for main: time 2025-03-14_01:42:18 on domain   2:    0.54453 elapsed seconds
Timing for main: time 2025-03-14_01:42:36 on domain   2:    0.52338 elapsed seconds
Timing for main: time 2025-03-14_01:42:36 on domain   1:    2.37963 elapsed seconds
Timing for main: time 2025-03-14_01:42:54 on domain   2:    0.49860 elapsed seconds
Timing for main: time 2025-03-14_01:43:12 on domain   2:    0.50067 elapsed seconds
Timing for main: time 2025-03-14_01:43:30 on domain   2:    0.49887 elapsed seconds
Timing for main: time 2025-03-14_01:43:30 on domain   1:    2.27535 elapsed seconds
Timing for main: time 2025-03-14_01:43:48 on domain   2:    0.50026 elapsed seconds
Timing for main: time 2025-03-14_01:44:06 on domain   2:    0.49597 elapsed seconds
Timing for main: time 2025-03-14_01:44:24 on domain   2:    0.50032 elapsed seconds
Timing for main: time 2025-03-14_01:44:24 on domain   1:    2.27154 elapsed seconds
Timing for main: time 2025-03-14_01:44:42 on domain   2:    0.50043 elapsed seconds
Timing for main: time 2025-03-14_01:45:00 on domain   2:    0.49599 elapsed seconds
Timing for main: time 2025-03-14_01:45:18 on domain   2:    1.41085 elapsed seconds
Timing for main: time 2025-03-14_01:45:18 on domain   1:    3.18788 elapsed seconds
Timing for main: time 2025-03-14_01:45:36 on domain   2:    0.49560 elapsed seconds
Timing for main: time 2025-03-14_01:45:54 on domain   2:    0.50040 elapsed seconds
Timing for main: time 2025-03-14_01:46:12 on domain   2:    0.49564 elapsed seconds
Timing for main: time 2025-03-14_01:46:12 on domain   1:    2.27341 elapsed seconds
Timing for main: time 2025-03-14_01:46:30 on domain   2:    0.51334 elapsed seconds
Timing for main: time 2025-03-14_01:46:48 on domain   2:    0.50089 elapsed seconds
Timing for main: time 2025-03-14_01:47:06 on domain   2:    0.50102 elapsed seconds
Timing for main: time 2025-03-14_01:47:06 on domain   1:    2.28980 elapsed seconds
Timing for main: time 2025-03-14_01:47:24 on domain   2:    0.50529 elapsed seconds
Timing for main: time 2025-03-14_01:47:42 on domain   2:    0.49698 elapsed seconds
Timing for main: time 2025-03-14_01:48:00 on domain   2:    0.49581 elapsed seconds
Timing for main: time 2025-03-14_01:48:00 on domain   1:    3.07957 elapsed seconds
Timing for main: time 2025-03-14_01:48:18 on domain   2:    0.50762 elapsed seconds
Timing for main: time 2025-03-14_01:48:36 on domain   2:    0.49658 elapsed seconds
Timing for main: time 2025-03-14_01:48:54 on domain   2:    0.49493 elapsed seconds
Timing for main: time 2025-03-14_01:48:54 on domain   1:    2.27279 elapsed seconds
Timing for main: time 2025-03-14_01:49:12 on domain   2:    0.50781 elapsed seconds
Timing for main: time 2025-03-14_01:49:30 on domain   2:    0.51825 elapsed seconds
Timing for main: time 2025-03-14_01:49:48 on domain   2:    0.50802 elapsed seconds
Timing for main: time 2025-03-14_01:49:48 on domain   1:    2.31904 elapsed seconds
Timing for main: time 2025-03-14_01:50:06 on domain   2:    0.49720 elapsed seconds
Timing for main: time 2025-03-14_01:50:24 on domain   2:    0.50554 elapsed seconds
Timing for main: time 2025-03-14_01:50:42 on domain   2:    0.50311 elapsed seconds
Timing for main: time 2025-03-14_01:50:42 on domain   1:    2.28268 elapsed seconds
Timing for main: time 2025-03-14_01:51:00 on domain   2:    0.49946 elapsed seconds
Timing for main: time 2025-03-14_01:51:18 on domain   2:    0.49997 elapsed seconds
Timing for main: time 2025-03-14_01:51:36 on domain   2:    0.49964 elapsed seconds
Timing for main: time 2025-03-14_01:51:36 on domain   1:    2.27374 elapsed seconds
Timing for main: time 2025-03-14_01:51:54 on domain   2:    0.49965 elapsed seconds
Timing for main: time 2025-03-14_01:52:12 on domain   2:    0.49724 elapsed seconds
Timing for main: time 2025-03-14_01:52:30 on domain   2:    0.49632 elapsed seconds
Timing for main: time 2025-03-14_01:52:30 on domain   1:    2.26778 elapsed seconds
Timing for main: time 2025-03-14_01:52:48 on domain   2:    0.49830 elapsed seconds
Timing for main: time 2025-03-14_01:53:06 on domain   2:    0.53420 elapsed seconds
Timing for main: time 2025-03-14_01:53:24 on domain   2:    0.50238 elapsed seconds
Timing for main: time 2025-03-14_01:53:24 on domain   1:    2.32945 elapsed seconds
Timing for main: time 2025-03-14_01:53:42 on domain   2:    0.50885 elapsed seconds
Timing for main: time 2025-03-14_01:54:00 on domain   2:    0.50086 elapsed seconds
Timing for main: time 2025-03-14_01:54:18 on domain   2:    0.49377 elapsed seconds
Timing for main: time 2025-03-14_01:54:18 on domain   1:    2.29287 elapsed seconds
Timing for main: time 2025-03-14_01:54:36 on domain   2:    0.50303 elapsed seconds
Timing for main: time 2025-03-14_01:54:54 on domain   2:    0.49809 elapsed seconds
Timing for main: time 2025-03-14_01:55:12 on domain   2:    0.49796 elapsed seconds
Timing for main: time 2025-03-14_01:55:12 on domain   1:    2.27685 elapsed seconds
Timing for main: time 2025-03-14_01:55:30 on domain   2:    0.49663 elapsed seconds
Timing for main: time 2025-03-14_01:55:48 on domain   2:    0.49797 elapsed seconds
Timing for main: time 2025-03-14_01:56:06 on domain   2:    0.49739 elapsed seconds
Timing for main: time 2025-03-14_01:56:06 on domain   1:    2.26640 elapsed seconds
Timing for main: time 2025-03-14_01:56:24 on domain   2:    0.49556 elapsed seconds
Timing for main: time 2025-03-14_01:56:42 on domain   2:    0.49724 elapsed seconds
Timing for main: time 2025-03-14_01:57:00 on domain   2:    0.52010 elapsed seconds
Timing for main: time 2025-03-14_01:57:00 on domain   1:    2.30355 elapsed seconds
Timing for main: time 2025-03-14_01:57:18 on domain   2:    0.50184 elapsed seconds
Timing for main: time 2025-03-14_01:57:36 on domain   2:    0.51090 elapsed seconds
Timing for main: time 2025-03-14_01:57:54 on domain   2:    0.49521 elapsed seconds
Timing for main: time 2025-03-14_01:57:54 on domain   1:    2.29218 elapsed seconds
Timing for main: time 2025-03-14_01:58:12 on domain   2:    0.50023 elapsed seconds
Timing for main: time 2025-03-14_01:58:30 on domain   2:    0.49806 elapsed seconds
Timing for main: time 2025-03-14_01:58:48 on domain   2:    0.49699 elapsed seconds
Timing for main: time 2025-03-14_01:58:48 on domain   1:    2.32776 elapsed seconds
Timing for main: time 2025-03-14_01:59:06 on domain   2:    0.50855 elapsed seconds
Timing for main: time 2025-03-14_01:59:24 on domain   2:    0.49957 elapsed seconds
Timing for main: time 2025-03-14_01:59:42 on domain   2:    0.51128 elapsed seconds
Timing for main: time 2025-03-14_01:59:42 on domain   1:    2.33815 elapsed seconds
Timing for main: time 2025-03-14_02:00:00 on domain   2:    0.50573 elapsed seconds
Timing for Writing wrfout_d02_2025-03-14_02:00:00 for domain        2:    1.97386 elapsed seconds
Timing for main: time 2025-03-14_02:00:18 on domain   2:    3.44070 elapsed seconds
Timing for main: time 2025-03-14_02:00:36 on domain   2:    0.50868 elapsed seconds
Timing for main: time 2025-03-14_02:00:36 on domain   1:    5.24354 elapsed seconds
Timing for Writing wrfout_d01_2025-03-14_02:00:36 for domain        1:    1.84947 elapsed seconds
Timing for main: time 2025-03-14_02:00:54 on domain   2:    0.50001 elapsed seconds
Timing for main: time 2025-03-14_02:01:12 on domain   2:    0.49744 elapsed seconds
Timing for main: time 2025-03-14_02:01:30 on domain   2:    0.49802 elapsed seconds
Timing for main: time 2025-03-14_02:01:30 on domain   1:    4.12820 elapsed seconds
Timing for main: time 2025-03-14_02:01:48 on domain   2:    0.52214 elapsed seconds
Timing for main: time 2025-03-14_02:02:06 on domain   2:    0.49598 elapsed seconds
Timing for main: time 2025-03-14_02:02:24 on domain   2:    0.49641 elapsed seconds
Timing for main: time 2025-03-14_02:02:24 on domain   1:    2.29807 elapsed seconds
Timing for main: time 2025-03-14_02:02:42 on domain   2:    0.49678 elapsed seconds
Timing for main: time 2025-03-14_02:03:00 on domain   2:    0.49913 elapsed seconds
Timing for main: time 2025-03-14_02:03:18 on domain   2:    0.49639 elapsed seconds
Timing for main: time 2025-03-14_02:03:18 on domain   1:    3.14325 elapsed seconds
Timing for main: time 2025-03-14_02:03:36 on domain   2:    0.53419 elapsed seconds
Timing for main: time 2025-03-14_02:03:54 on domain   2:    0.54677 elapsed seconds
Timing for main: time 2025-03-14_02:04:12 on domain   2:    0.50473 elapsed seconds
Timing for main: time 2025-03-14_02:04:12 on domain   1:    2.37710 elapsed seconds
Timing for main: time 2025-03-14_02:04:30 on domain   2:    0.50563 elapsed seconds
Timing for main: time 2025-03-14_02:04:48 on domain   2:    0.49587 elapsed seconds
Timing for main: time 2025-03-14_02:05:06 on domain   2:    0.51475 elapsed seconds
Timing for main: time 2025-03-14_02:05:06 on domain   1:    2.29923 elapsed seconds
Timing for main: time 2025-03-14_02:05:24 on domain   2:    0.49911 elapsed seconds
Timing for main: time 2025-03-14_02:05:42 on domain   2:    0.49680 elapsed seconds
Timing for main: time 2025-03-14_02:06:00 on domain   2:    0.49512 elapsed seconds
Timing for main: time 2025-03-14_02:06:00 on domain   1:    2.26814 elapsed seconds
Timing for main: time 2025-03-14_02:06:18 on domain   2:    0.50042 elapsed seconds
Timing for main: time 2025-03-14_02:06:36 on domain   2:    0.49694 elapsed seconds
Timing for main: time 2025-03-14_02:06:54 on domain   2:    0.50047 elapsed seconds
Timing for main: time 2025-03-14_02:06:54 on domain   1:    2.28261 elapsed seconds
Timing for main: time 2025-03-14_02:07:12 on domain   2:    0.51320 elapsed seconds
Timing for main: time 2025-03-14_02:07:30 on domain   2:    0.49950 elapsed seconds
Timing for main: time 2025-03-14_02:07:48 on domain   2:    0.51273 elapsed seconds
Timing for main: time 2025-03-14_02:07:48 on domain   1:    2.34799 elapsed seconds
Timing for main: time 2025-03-14_02:08:06 on domain   2:    0.49734 elapsed seconds
Timing for main: time 2025-03-14_02:08:24 on domain   2:    0.50440 elapsed seconds
Timing for main: time 2025-03-14_02:08:42 on domain   2:    0.53288 elapsed seconds
Timing for main: time 2025-03-14_02:08:42 on domain   1:    2.31447 elapsed seconds
Timing for main: time 2025-03-14_02:09:00 on domain   2:    0.50876 elapsed seconds
Timing for main: time 2025-03-14_02:09:18 on domain   2:    0.54239 elapsed seconds
Timing for main: time 2025-03-14_02:09:36 on domain   2:    0.51877 elapsed seconds
Timing for main: time 2025-03-14_02:09:36 on domain   1:    2.42281 elapsed seconds
Timing for main: time 2025-03-14_02:09:54 on domain   2:    0.49667 elapsed seconds
Timing for main: time 2025-03-14_02:10:12 on domain   2:    0.49697 elapsed seconds
Timing for main: time 2025-03-14_02:10:30 on domain   2:    0.50175 elapsed seconds
Timing for main: time 2025-03-14_02:10:30 on domain   1:    2.27249 elapsed seconds
Timing for main: time 2025-03-14_02:10:48 on domain   2:    0.49703 elapsed seconds
Timing for main: time 2025-03-14_02:11:06 on domain   2:    0.51350 elapsed seconds
Timing for main: time 2025-03-14_02:11:24 on domain   2:    0.50838 elapsed seconds
Timing for main: time 2025-03-14_02:11:24 on domain   1:    2.29611 elapsed seconds
Timing for main: time 2025-03-14_02:11:42 on domain   2:    0.49872 elapsed seconds
Timing for main: time 2025-03-14_02:12:00 on domain   2:    0.49746 elapsed seconds
Timing for main: time 2025-03-14_02:12:18 on domain   2:    0.49539 elapsed seconds
Timing for main: time 2025-03-14_02:12:18 on domain   1:    2.28854 elapsed seconds
Timing for main: time 2025-03-14_02:12:36 on domain   2:    0.50930 elapsed seconds
Timing for main: time 2025-03-14_02:12:54 on domain   2:    0.49615 elapsed seconds
Timing for main: time 2025-03-14_02:13:12 on domain   2:    0.49833 elapsed seconds
Timing for main: time 2025-03-14_02:13:12 on domain   1:    2.28330 elapsed seconds
Timing for main: time 2025-03-14_02:13:30 on domain   2:    0.52558 elapsed seconds
Timing for main: time 2025-03-14_02:13:48 on domain   2:    0.49666 elapsed seconds
Timing for main: time 2025-03-14_02:14:06 on domain   2:    0.53926 elapsed seconds
Timing for main: time 2025-03-14_02:14:06 on domain   1:    2.36776 elapsed seconds
Timing for main: time 2025-03-14_02:14:24 on domain   2:    0.49578 elapsed seconds
Timing for main: time 2025-03-14_02:14:42 on domain   2:    0.50677 elapsed seconds
Timing for main: time 2025-03-14_02:15:00 on domain   2:    0.49672 elapsed seconds
Timing for main: time 2025-03-14_02:15:00 on domain   1:    2.30125 elapsed seconds
Timing for main: time 2025-03-14_02:15:18 on domain   2:    1.44289 elapsed seconds
Timing for main: time 2025-03-14_02:15:36 on domain   2:    0.50568 elapsed seconds
Timing for main: time 2025-03-14_02:15:54 on domain   2:    0.49659 elapsed seconds
Timing for main: time 2025-03-14_02:15:54 on domain   1:    3.22726 elapsed seconds
Timing for main: time 2025-03-14_02:16:12 on domain   2:    0.51413 elapsed seconds
Timing for main: time 2025-03-14_02:16:30 on domain   2:    0.49547 elapsed seconds
Timing for main: time 2025-03-14_02:16:48 on domain   2:    0.55101 elapsed seconds
Timing for main: time 2025-03-14_02:16:48 on domain   1:    2.33781 elapsed seconds
Timing for main: time 2025-03-14_02:17:06 on domain   2:    0.49918 elapsed seconds
Timing for main: time 2025-03-14_02:17:24 on domain   2:    0.49888 elapsed seconds
Timing for main: time 2025-03-14_02:17:42 on domain   2:    0.50408 elapsed seconds
Timing for main: time 2025-03-14_02:17:42 on domain   1:    2.27804 elapsed seconds
Timing for main: time 2025-03-14_02:18:00 on domain   2:    0.55282 elapsed seconds
Timing for main: time 2025-03-14_02:18:18 on domain   2:    0.51396 elapsed seconds
Timing for main: time 2025-03-14_02:18:36 on domain   2:    0.49441 elapsed seconds
Timing for main: time 2025-03-14_02:18:36 on domain   1:    3.25285 elapsed seconds
Timing for main: time 2025-03-14_02:18:54 on domain   2:    0.49435 elapsed seconds
Timing for main: time 2025-03-14_02:19:12 on domain   2:    0.49698 elapsed seconds
Timing for main: time 2025-03-14_02:19:30 on domain   2:    0.49696 elapsed seconds
Timing for main: time 2025-03-14_02:19:30 on domain   1:    2.32045 elapsed seconds
Timing for main: time 2025-03-14_02:19:48 on domain   2:    0.49687 elapsed seconds
Timing for main: time 2025-03-14_02:20:06 on domain   2:    0.49669 elapsed seconds
Timing for main: time 2025-03-14_02:20:24 on domain   2:    0.49604 elapsed seconds
Timing for main: time 2025-03-14_02:20:24 on domain   1:    2.29741 elapsed seconds
Timing for main: time 2025-03-14_02:20:42 on domain   2:    0.50073 elapsed seconds
Timing for main: time 2025-03-14_02:21:00 on domain   2:    0.50533 elapsed seconds
Timing for main: time 2025-03-14_02:21:18 on domain   2:    0.49916 elapsed seconds
Timing for main: time 2025-03-14_02:21:18 on domain   1:    2.28824 elapsed seconds
Timing for main: time 2025-03-14_02:21:36 on domain   2:    0.49960 elapsed seconds
Timing for main: time 2025-03-14_02:21:54 on domain   2:    0.50113 elapsed seconds
Timing for main: time 2025-03-14_02:22:12 on domain   2:    0.49577 elapsed seconds
Timing for main: time 2025-03-14_02:22:12 on domain   1:    2.27021 elapsed seconds
Timing for main: time 2025-03-14_02:22:30 on domain   2:    0.51322 elapsed seconds
Timing for main: time 2025-03-14_02:22:48 on domain   2:    0.49624 elapsed seconds
Timing for main: time 2025-03-14_02:23:06 on domain   2:    0.50852 elapsed seconds
Timing for main: time 2025-03-14_02:23:06 on domain   1:    2.30395 elapsed seconds
Timing for main: time 2025-03-14_02:23:24 on domain   2:    0.50518 elapsed seconds
Timing for main: time 2025-03-14_02:23:42 on domain   2:    0.49789 elapsed seconds
Timing for main: time 2025-03-14_02:24:00 on domain   2:    0.49441 elapsed seconds
Timing for main: time 2025-03-14_02:24:00 on domain   1:    2.29581 elapsed seconds
Timing for main: time 2025-03-14_02:24:18 on domain   2:    0.51498 elapsed seconds
Timing for main: time 2025-03-14_02:24:36 on domain   2:    0.51564 elapsed seconds
Timing for main: time 2025-03-14_02:24:54 on domain   2:    0.56763 elapsed seconds
Timing for main: time 2025-03-14_02:24:54 on domain   1:    2.42972 elapsed seconds
Timing for main: time 2025-03-14_02:25:12 on domain   2:    0.49581 elapsed seconds
Timing for main: time 2025-03-14_02:25:30 on domain   2:    0.51152 elapsed seconds
Timing for main: time 2025-03-14_02:25:48 on domain   2:    0.50672 elapsed seconds
Timing for main: time 2025-03-14_02:25:48 on domain   1:    2.31251 elapsed seconds
Timing for main: time 2025-03-14_02:26:06 on domain   2:    0.49804 elapsed seconds
Timing for main: time 2025-03-14_02:26:24 on domain   2:    0.49741 elapsed seconds
Timing for main: time 2025-03-14_02:26:42 on domain   2:    0.50178 elapsed seconds
Timing for main: time 2025-03-14_02:26:42 on domain   1:    2.30095 elapsed seconds
Timing for main: time 2025-03-14_02:27:00 on domain   2:    0.50095 elapsed seconds
Timing for main: time 2025-03-14_02:27:18 on domain   2:    0.50228 elapsed seconds
Timing for main: time 2025-03-14_02:27:36 on domain   2:    0.51240 elapsed seconds
Timing for main: time 2025-03-14_02:27:36 on domain   1:    2.31368 elapsed seconds
Timing for main: time 2025-03-14_02:27:54 on domain   2:    0.49481 elapsed seconds
Timing for main: time 2025-03-14_02:28:12 on domain   2:    0.49686 elapsed seconds
Timing for main: time 2025-03-14_02:28:30 on domain   2:    0.50623 elapsed seconds
Timing for main: time 2025-03-14_02:28:30 on domain   1:    2.29648 elapsed seconds
Timing for main: time 2025-03-14_02:28:48 on domain   2:    0.50085 elapsed seconds
Timing for main: time 2025-03-14_02:29:06 on domain   2:    0.49536 elapsed seconds
Timing for main: time 2025-03-14_02:29:24 on domain   2:    0.49556 elapsed seconds
Timing for main: time 2025-03-14_02:29:24 on domain   1:    2.26675 elapsed seconds
Timing for main: time 2025-03-14_02:29:42 on domain   2:    0.49631 elapsed seconds
Timing for main: time 2025-03-14_02:30:00 on domain   2:    0.50525 elapsed seconds
Timing for main: time 2025-03-14_02:30:18 on domain   2:    1.38979 elapsed seconds
Timing for main: time 2025-03-14_02:30:18 on domain   1:    3.23983 elapsed seconds
Timing for main: time 2025-03-14_02:30:36 on domain   2:    0.50097 elapsed seconds
Timing for main: time 2025-03-14_02:30:54 on domain   2:    0.49591 elapsed seconds
Timing for main: time 2025-03-14_02:31:12 on domain   2:    0.50468 elapsed seconds
Timing for main: time 2025-03-14_02:31:12 on domain   1:    2.31775 elapsed seconds
Timing for main: time 2025-03-14_02:31:30 on domain   2:    0.52349 elapsed seconds
Timing for main: time 2025-03-14_02:31:48 on domain   2:    0.50484 elapsed seconds
Timing for main: time 2025-03-14_02:32:06 on domain   2:    0.49837 elapsed seconds
Timing for main: time 2025-03-14_02:32:06 on domain   1:    2.30231 elapsed seconds
Timing for main: time 2025-03-14_02:32:24 on domain   2:    0.49823 elapsed seconds
Timing for main: time 2025-03-14_02:32:42 on domain   2:    0.49971 elapsed seconds
Timing for main: time 2025-03-14_02:33:00 on domain   2:    0.50061 elapsed seconds
Timing for main: time 2025-03-14_02:33:00 on domain   1:    2.28368 elapsed seconds
Timing for main: time 2025-03-14_02:33:18 on domain   2:    0.49784 elapsed seconds
Timing for main: time 2025-03-14_02:33:36 on domain   2:    0.50048 elapsed seconds
Timing for main: time 2025-03-14_02:33:54 on domain   2:    0.51484 elapsed seconds
Timing for main: time 2025-03-14_02:33:54 on domain   1:    3.15497 elapsed seconds
Timing for main: time 2025-03-14_02:34:12 on domain   2:    0.52859 elapsed seconds
Timing for main: time 2025-03-14_02:34:30 on domain   2:    0.49648 elapsed seconds
Timing for main: time 2025-03-14_02:34:48 on domain   2:    0.51044 elapsed seconds
Timing for main: time 2025-03-14_02:34:48 on domain   1:    2.31728 elapsed seconds
Timing for main: time 2025-03-14_02:35:06 on domain   2:    0.49873 elapsed seconds
Timing for main: time 2025-03-14_02:35:24 on domain   2:    0.50200 elapsed seconds
Timing for main: time 2025-03-14_02:35:42 on domain   2:    0.49596 elapsed seconds
Timing for main: time 2025-03-14_02:35:42 on domain   1:    2.27314 elapsed seconds
Timing for main: time 2025-03-14_02:36:00 on domain   2:    0.49652 elapsed seconds
Timing for main: time 2025-03-14_02:36:18 on domain   2:    0.51160 elapsed seconds
Timing for main: time 2025-03-14_02:36:36 on domain   2:    0.49740 elapsed seconds
Timing for main: time 2025-03-14_02:36:36 on domain   1:    2.33631 elapsed seconds
Timing for main: time 2025-03-14_02:36:54 on domain   2:    0.51552 elapsed seconds
Timing for main: time 2025-03-14_02:37:12 on domain   2:    0.52773 elapsed seconds
Timing for main: time 2025-03-14_02:37:30 on domain   2:    0.49735 elapsed seconds
Timing for main: time 2025-03-14_02:37:30 on domain   1:    2.35398 elapsed seconds
Timing for main: time 2025-03-14_02:37:48 on domain   2:    0.54568 elapsed seconds
Timing for main: time 2025-03-14_02:38:06 on domain   2:    0.52971 elapsed seconds
Timing for main: time 2025-03-14_02:38:24 on domain   2:    0.50951 elapsed seconds
Timing for main: time 2025-03-14_02:38:24 on domain   1:    2.36556 elapsed seconds
Timing for main: time 2025-03-14_02:38:42 on domain   2:    0.54686 elapsed seconds
Timing for main: time 2025-03-14_02:39:00 on domain   2:    0.49969 elapsed seconds
Timing for main: time 2025-03-14_02:39:18 on domain   2:    0.51782 elapsed seconds
Timing for main: time 2025-03-14_02:39:18 on domain   1:    2.34624 elapsed seconds
Timing for main: time 2025-03-14_02:39:36 on domain   2:    0.51248 elapsed seconds
Timing for main: time 2025-03-14_02:39:54 on domain   2:    0.50833 elapsed seconds
Timing for main: time 2025-03-14_02:40:12 on domain   2:    0.50120 elapsed seconds
Timing for main: time 2025-03-14_02:40:12 on domain   1:    2.33681 elapsed seconds
Timing for main: time 2025-03-14_02:40:30 on domain   2:    0.51533 elapsed seconds
Timing for main: time 2025-03-14_02:40:48 on domain   2:    0.50279 elapsed seconds
Timing for main: time 2025-03-14_02:41:06 on domain   2:    0.49554 elapsed seconds
Timing for main: time 2025-03-14_02:41:06 on domain   1:    2.29994 elapsed seconds
Timing for main: time 2025-03-14_02:41:24 on domain   2:    0.50274 elapsed seconds
Timing for main: time 2025-03-14_02:41:42 on domain   2:    0.49734 elapsed seconds
Timing for main: time 2025-03-14_02:42:00 on domain   2:    0.49549 elapsed seconds
Timing for main: time 2025-03-14_02:42:00 on domain   1:    2.29165 elapsed seconds
Timing for main: time 2025-03-14_02:42:18 on domain   2:    0.50580 elapsed seconds
Timing for main: time 2025-03-14_02:42:36 on domain   2:    0.49900 elapsed seconds
Timing for main: time 2025-03-14_02:42:54 on domain   2:    0.53504 elapsed seconds
Timing for main: time 2025-03-14_02:42:54 on domain   1:    2.31478 elapsed seconds
Timing for main: time 2025-03-14_02:43:12 on domain   2:    0.49792 elapsed seconds
Timing for main: time 2025-03-14_02:43:30 on domain   2:    0.50412 elapsed seconds
Timing for main: time 2025-03-14_02:43:48 on domain   2:    0.49542 elapsed seconds
Timing for main: time 2025-03-14_02:43:48 on domain   1:    2.31066 elapsed seconds
Timing for main: time 2025-03-14_02:44:06 on domain   2:    0.49939 elapsed seconds
Timing for main: time 2025-03-14_02:44:24 on domain   2:    0.49901 elapsed seconds
Timing for main: time 2025-03-14_02:44:42 on domain   2:    0.49477 elapsed seconds
Timing for main: time 2025-03-14_02:44:42 on domain   1:    2.27851 elapsed seconds
Timing for main: time 2025-03-14_02:45:00 on domain   2:    0.51007 elapsed seconds
Timing for main: time 2025-03-14_02:45:18 on domain   2:    1.42592 elapsed seconds
Timing for main: time 2025-03-14_02:45:36 on domain   2:    0.50146 elapsed seconds
Timing for main: time 2025-03-14_02:45:36 on domain   1:    3.21405 elapsed seconds
Timing for main: time 2025-03-14_02:45:54 on domain   2:    0.50401 elapsed seconds
Timing for main: time 2025-03-14_02:46:12 on domain   2:    0.50524 elapsed seconds
Timing for main: time 2025-03-14_02:46:30 on domain   2:    0.49742 elapsed seconds
Timing for main: time 2025-03-14_02:46:30 on domain   1:    2.28551 elapsed seconds
Timing for main: time 2025-03-14_02:46:48 on domain   2:    0.50105 elapsed seconds
Timing for main: time 2025-03-14_02:47:06 on domain   2:    0.52059 elapsed seconds
Timing for main: time 2025-03-14_02:47:24 on domain   2:    0.51216 elapsed seconds
Timing for main: time 2025-03-14_02:47:24 on domain   1:    2.38035 elapsed seconds
Timing for main: time 2025-03-14_02:47:42 on domain   2:    0.49805 elapsed seconds
Timing for main: time 2025-03-14_02:48:00 on domain   2:    0.49804 elapsed seconds
Timing for main: time 2025-03-14_02:48:18 on domain   2:    0.51511 elapsed seconds
Timing for main: time 2025-03-14_02:48:18 on domain   1:    2.28660 elapsed seconds
Timing for main: time 2025-03-14_02:48:36 on domain   2:    0.54881 elapsed seconds
Timing for main: time 2025-03-14_02:48:54 on domain   2:    0.49626 elapsed seconds
Timing for main: time 2025-03-14_02:49:12 on domain   2:    0.49557 elapsed seconds
Timing for main: time 2025-03-14_02:49:12 on domain   1:    3.19094 elapsed seconds
Timing for main: time 2025-03-14_02:49:30 on domain   2:    0.52066 elapsed seconds
Timing for main: time 2025-03-14_02:49:48 on domain   2:    0.49743 elapsed seconds
Timing for main: time 2025-03-14_02:50:06 on domain   2:    0.49883 elapsed seconds
Timing for main: time 2025-03-14_02:50:06 on domain   1:    2.30259 elapsed seconds
Timing for main: time 2025-03-14_02:50:24 on domain   2:    0.49644 elapsed seconds
Timing for main: time 2025-03-14_02:50:42 on domain   2:    0.49889 elapsed seconds
Timing for main: time 2025-03-14_02:51:00 on domain   2:    0.49629 elapsed seconds
Timing for main: time 2025-03-14_02:51:00 on domain   1:    2.28252 elapsed seconds
Timing for main: time 2025-03-14_02:51:18 on domain   2:    0.50775 elapsed seconds
Timing for main: time 2025-03-14_02:51:36 on domain   2:    0.49836 elapsed seconds
Timing for main: time 2025-03-14_02:51:54 on domain   2:    0.52791 elapsed seconds
Timing for main: time 2025-03-14_02:51:54 on domain   1:    2.31762 elapsed seconds
Timing for main: time 2025-03-14_02:52:12 on domain   2:    0.50276 elapsed seconds
Timing for main: time 2025-03-14_02:52:30 on domain   2:    0.49729 elapsed seconds
Timing for main: time 2025-03-14_02:52:48 on domain   2:    0.49622 elapsed seconds
Timing for main: time 2025-03-14_02:52:48 on domain   1:    2.29934 elapsed seconds
Timing for main: time 2025-03-14_02:53:06 on domain   2:    0.50286 elapsed seconds
Timing for main: time 2025-03-14_02:53:24 on domain   2:    0.49668 elapsed seconds
Timing for main: time 2025-03-14_02:53:42 on domain   2:    0.49662 elapsed seconds
Timing for main: time 2025-03-14_02:53:42 on domain   1:    2.27186 elapsed seconds
Timing for main: time 2025-03-14_02:54:00 on domain   2:    0.53437 elapsed seconds
Timing for main: time 2025-03-14_02:54:18 on domain   2:    0.49593 elapsed seconds
Timing for main: time 2025-03-14_02:54:36 on domain   2:    0.49681 elapsed seconds
Timing for main: time 2025-03-14_02:54:36 on domain   1:    2.32639 elapsed seconds
Timing for main: time 2025-03-14_02:54:54 on domain   2:    0.49942 elapsed seconds
Timing for main: time 2025-03-14_02:55:12 on domain   2:    0.51265 elapsed seconds
Timing for main: time 2025-03-14_02:55:30 on domain   2:    0.50091 elapsed seconds
Timing for main: time 2025-03-14_02:55:30 on domain   1:    2.30072 elapsed seconds
Timing for main: time 2025-03-14_02:55:48 on domain   2:    0.49855 elapsed seconds
Timing for main: time 2025-03-14_02:56:06 on domain   2:    0.51177 elapsed seconds
Timing for main: time 2025-03-14_02:56:24 on domain   2:    0.49768 elapsed seconds
Timing for main: time 2025-03-14_02:56:24 on domain   1:    2.28403 elapsed seconds
Timing for main: time 2025-03-14_02:56:42 on domain   2:    0.49960 elapsed seconds
Timing for main: time 2025-03-14_02:57:00 on domain   2:    0.49715 elapsed seconds
Timing for main: time 2025-03-14_02:57:18 on domain   2:    0.49846 elapsed seconds
Timing for main: time 2025-03-14_02:57:18 on domain   1:    2.27280 elapsed seconds
Timing for main: time 2025-03-14_02:57:36 on domain   2:    0.49876 elapsed seconds
Timing for main: time 2025-03-14_02:57:54 on domain   2:    0.50112 elapsed seconds
Timing for main: time 2025-03-14_02:58:12 on domain   2:    0.55739 elapsed seconds
Timing for main: time 2025-03-14_02:58:12 on domain   1:    2.39912 elapsed seconds
Timing for main: time 2025-03-14_02:58:30 on domain   2:    0.50004 elapsed seconds
Timing for main: time 2025-03-14_02:58:48 on domain   2:    0.49805 elapsed seconds
Timing for main: time 2025-03-14_02:59:06 on domain   2:    0.49764 elapsed seconds
Timing for main: time 2025-03-14_02:59:06 on domain   1:    2.27210 elapsed seconds
Timing for main: time 2025-03-14_02:59:24 on domain   2:    0.49682 elapsed seconds
Timing for main: time 2025-03-14_02:59:42 on domain   2:    0.49875 elapsed seconds
Timing for main: time 2025-03-14_03:00:00 on domain   2:    0.51278 elapsed seconds
Timing for main: time 2025-03-14_03:00:00 on domain   1:    2.30973 elapsed seconds
Timing for Writing wrfout_d01_2025-03-14_03:00:00 for domain        1:    1.85595 elapsed seconds
Timing for Writing wrfout_d02_2025-03-14_03:00:00 for domain        2:    1.99039 elapsed seconds
Timing for main: time 2025-03-14_03:00:18 on domain   2:    3.40382 elapsed seconds
Timing for main: time 2025-03-14_03:00:36 on domain   2:    0.49853 elapsed seconds
Timing for main: time 2025-03-14_03:00:54 on domain   2:    0.50036 elapsed seconds
Timing for main: time 2025-03-14_03:00:54 on domain   1:    7.06370 elapsed seconds
Timing for main: time 2025-03-14_03:01:12 on domain   2:    0.50378 elapsed seconds
Timing for main: time 2025-03-14_03:01:30 on domain   2:    0.51725 elapsed seconds
Timing for main: time 2025-03-14_03:01:48 on domain   2:    0.49457 elapsed seconds
Timing for main: time 2025-03-14_03:01:48 on domain   1:    2.28932 elapsed seconds
Timing for main: time 2025-03-14_03:02:06 on domain   2:    0.50326 elapsed seconds
Timing for main: time 2025-03-14_03:02:24 on domain   2:    0.50678 elapsed seconds
Timing for main: time 2025-03-14_03:02:42 on domain   2:    0.49670 elapsed seconds
Timing for main: time 2025-03-14_03:02:42 on domain   1:    2.28997 elapsed seconds
Timing for main: time 2025-03-14_03:03:00 on domain   2:    0.50470 elapsed seconds
Timing for main: time 2025-03-14_03:03:18 on domain   2:    0.49957 elapsed seconds
Timing for main: time 2025-03-14_03:03:36 on domain   2:    0.49721 elapsed seconds
Timing for main: time 2025-03-14_03:03:36 on domain   1:    2.31195 elapsed seconds
Timing for main: time 2025-03-14_03:03:54 on domain   2:    0.51752 elapsed seconds
Timing for main: time 2025-03-14_03:04:12 on domain   2:    0.50217 elapsed seconds
Timing for main: time 2025-03-14_03:04:30 on domain   2:    0.49666 elapsed seconds
Timing for main: time 2025-03-14_03:04:30 on domain   1:    3.11409 elapsed seconds
Timing for main: time 2025-03-14_03:04:48 on domain   2:    0.52196 elapsed seconds
Timing for main: time 2025-03-14_03:05:06 on domain   2:    0.49815 elapsed seconds
Timing for main: time 2025-03-14_03:05:24 on domain   2:    0.53252 elapsed seconds
Timing for main: time 2025-03-14_03:05:24 on domain   1:    2.33267 elapsed seconds
Timing for main: time 2025-03-14_03:05:42 on domain   2:    0.51137 elapsed seconds
Timing for main: time 2025-03-14_03:06:00 on domain   2:    0.51516 elapsed seconds
Timing for main: time 2025-03-14_03:06:18 on domain   2:    0.49653 elapsed seconds
Timing for main: time 2025-03-14_03:06:18 on domain   1:    2.32138 elapsed seconds
Timing for main: time 2025-03-14_03:06:36 on domain   2:    0.49850 elapsed seconds
Timing for main: time 2025-03-14_03:06:54 on domain   2:    0.49975 elapsed seconds
Timing for main: time 2025-03-14_03:07:12 on domain   2:    0.50476 elapsed seconds
Timing for main: time 2025-03-14_03:07:12 on domain   1:    2.27960 elapsed seconds
Timing for main: time 2025-03-14_03:07:30 on domain   2:    0.49884 elapsed seconds
Timing for main: time 2025-03-14_03:07:48 on domain   2:    0.51122 elapsed seconds
Timing for main: time 2025-03-14_03:08:06 on domain   2:    0.49909 elapsed seconds
Timing for main: time 2025-03-14_03:08:06 on domain   1:    2.28755 elapsed seconds
Timing for main: time 2025-03-14_03:08:24 on domain   2:    0.50130 elapsed seconds
[...]
Timing for main: time 2025-03-17_23:07:30 on domain   2:    0.53913 elapsed seconds
Timing for main: time 2025-03-17_23:07:48 on domain   2:    0.52434 elapsed seconds
Timing for main: time 2025-03-17_23:07:48 on domain   1:    3.23939 elapsed seconds
Timing for main: time 2025-03-17_23:08:06 on domain   2:    0.52556 elapsed seconds
Timing for main: time 2025-03-17_23:08:24 on domain   2:    0.52366 elapsed seconds
Timing for main: time 2025-03-17_23:08:42 on domain   2:    0.52146 elapsed seconds
Timing for main: time 2025-03-17_23:08:42 on domain   1:    2.36777 elapsed seconds
Timing for main: time 2025-03-17_23:09:00 on domain   2:    0.52492 elapsed seconds
Timing for main: time 2025-03-17_23:09:18 on domain   2:    0.52297 elapsed seconds
Timing for main: time 2025-03-17_23:09:36 on domain   2:    0.52278 elapsed seconds
Timing for main: time 2025-03-17_23:09:36 on domain   1:    2.38106 elapsed seconds
Timing for main: time 2025-03-17_23:09:54 on domain   2:    0.52301 elapsed seconds
Timing for main: time 2025-03-17_23:10:12 on domain   2:    0.52298 elapsed seconds
Timing for main: time 2025-03-17_23:10:30 on domain   2:    0.52046 elapsed seconds
Timing for main: time 2025-03-17_23:10:30 on domain   1:    2.36516 elapsed seconds
Timing for main: time 2025-03-17_23:10:48 on domain   2:    0.52130 elapsed seconds
Timing for main: time 2025-03-17_23:11:06 on domain   2:    0.52286 elapsed seconds
Timing for main: time 2025-03-17_23:11:24 on domain   2:    0.52176 elapsed seconds
Timing for main: time 2025-03-17_23:11:24 on domain   1:    2.37651 elapsed seconds
Timing for main: time 2025-03-17_23:11:42 on domain   2:    0.52291 elapsed seconds
Timing for main: time 2025-03-17_23:12:00 on domain   2:    0.52135 elapsed seconds
Timing for main: time 2025-03-17_23:12:18 on domain   2:    0.52427 elapsed seconds
Timing for main: time 2025-03-17_23:12:18 on domain   1:    2.36945 elapsed seconds
Timing for main: time 2025-03-17_23:12:36 on domain   2:    0.52313 elapsed seconds
Timing for main: time 2025-03-17_23:12:54 on domain   2:    0.52904 elapsed seconds
Timing for main: time 2025-03-17_23:13:12 on domain   2:    0.52202 elapsed seconds
Timing for main: time 2025-03-17_23:13:12 on domain   1:    2.39886 elapsed seconds
Timing for main: time 2025-03-17_23:13:30 on domain   2:    0.57227 elapsed seconds
Timing for main: time 2025-03-17_23:13:48 on domain   2:    0.52985 elapsed seconds
Timing for main: time 2025-03-17_23:14:06 on domain   2:    0.52556 elapsed seconds
Timing for main: time 2025-03-17_23:14:06 on domain   1:    2.42572 elapsed seconds
Timing for main: time 2025-03-17_23:14:24 on domain   2:    0.52206 elapsed seconds
Timing for main: time 2025-03-17_23:14:42 on domain   2:    0.52501 elapsed seconds
Timing for main: time 2025-03-17_23:15:00 on domain   2:    0.52111 elapsed seconds
Timing for main: time 2025-03-17_23:15:00 on domain   1:    2.36966 elapsed seconds
Timing for main: time 2025-03-17_23:15:18 on domain   2:    1.42888 elapsed seconds
Timing for main: time 2025-03-17_23:15:36 on domain   2:    0.52576 elapsed seconds
Timing for main: time 2025-03-17_23:15:54 on domain   2:    0.53627 elapsed seconds
Timing for main: time 2025-03-17_23:15:54 on domain   1:    3.31107 elapsed seconds
Timing for main: time 2025-03-17_23:16:12 on domain   2:    0.57203 elapsed seconds
Timing for main: time 2025-03-17_23:16:30 on domain   2:    0.51953 elapsed seconds
Timing for main: time 2025-03-17_23:16:48 on domain   2:    0.51979 elapsed seconds
Timing for main: time 2025-03-17_23:16:48 on domain   1:    2.41208 elapsed seconds
Timing for main: time 2025-03-17_23:17:06 on domain   2:    0.54075 elapsed seconds
Timing for main: time 2025-03-17_23:17:24 on domain   2:    0.52080 elapsed seconds
Timing for main: time 2025-03-17_23:17:42 on domain   2:    0.52446 elapsed seconds
Timing for main: time 2025-03-17_23:17:42 on domain   1:    2.38591 elapsed seconds
Timing for main: time 2025-03-17_23:18:00 on domain   2:    0.52211 elapsed seconds
Timing for main: time 2025-03-17_23:18:18 on domain   2:    0.52732 elapsed seconds
Timing for main: time 2025-03-17_23:18:36 on domain   2:    0.52013 elapsed seconds
Timing for main: time 2025-03-17_23:18:36 on domain   1:    2.39000 elapsed seconds
Timing for main: time 2025-03-17_23:18:54 on domain   2:    0.52242 elapsed seconds
Timing for main: time 2025-03-17_23:19:12 on domain   2:    0.51975 elapsed seconds
Timing for main: time 2025-03-17_23:19:30 on domain   2:    0.51942 elapsed seconds
Timing for main: time 2025-03-17_23:19:30 on domain   1:    2.36164 elapsed seconds
Timing for main: time 2025-03-17_23:19:48 on domain   2:    0.52339 elapsed seconds
Timing for main: time 2025-03-17_23:20:06 on domain   2:    0.52859 elapsed seconds
Timing for main: time 2025-03-17_23:20:24 on domain   2:    0.52091 elapsed seconds
Timing for main: time 2025-03-17_23:20:24 on domain   1:    2.37616 elapsed seconds
Timing for main: time 2025-03-17_23:20:42 on domain   2:    0.52094 elapsed seconds
Timing for main: time 2025-03-17_23:21:00 on domain   2:    0.52125 elapsed seconds
Timing for main: time 2025-03-17_23:21:18 on domain   2:    0.52419 elapsed seconds
Timing for main: time 2025-03-17_23:21:18 on domain   1:    2.36929 elapsed seconds
Timing for main: time 2025-03-17_23:21:36 on domain   2:    0.52132 elapsed seconds
Timing for main: time 2025-03-17_23:21:54 on domain   2:    0.52396 elapsed seconds
Timing for main: time 2025-03-17_23:22:12 on domain   2:    0.51948 elapsed seconds
Timing for main: time 2025-03-17_23:22:12 on domain   1:    2.36468 elapsed seconds
Timing for main: time 2025-03-17_23:22:30 on domain   2:    0.52496 elapsed seconds
Timing for main: time 2025-03-17_23:22:48 on domain   2:    0.52268 elapsed seconds
Timing for main: time 2025-03-17_23:23:06 on domain   2:    0.52120 elapsed seconds
Timing for main: time 2025-03-17_23:23:06 on domain   1:    3.23579 elapsed seconds
Timing for main: time 2025-03-17_23:23:24 on domain   2:    0.52390 elapsed seconds
Timing for main: time 2025-03-17_23:23:42 on domain   2:    0.55649 elapsed seconds
Timing for main: time 2025-03-17_23:24:00 on domain   2:    0.52105 elapsed seconds
Timing for main: time 2025-03-17_23:24:00 on domain   1:    2.42347 elapsed seconds
Timing for main: time 2025-03-17_23:24:18 on domain   2:    0.54418 elapsed seconds
Timing for main: time 2025-03-17_23:24:36 on domain   2:    0.52273 elapsed seconds
Timing for main: time 2025-03-17_23:24:54 on domain   2:    0.52072 elapsed seconds
Timing for main: time 2025-03-17_23:24:54 on domain   1:    2.39147 elapsed seconds
Timing for main: time 2025-03-17_23:25:12 on domain   2:    0.52218 elapsed seconds
Timing for main: time 2025-03-17_23:25:30 on domain   2:    0.52096 elapsed seconds
Timing for main: time 2025-03-17_23:25:48 on domain   2:    0.52421 elapsed seconds
Timing for main: time 2025-03-17_23:25:48 on domain   1:    2.40014 elapsed seconds
Timing for main: time 2025-03-17_23:26:06 on domain   2:    0.52114 elapsed seconds
Timing for main: time 2025-03-17_23:26:24 on domain   2:    0.52286 elapsed seconds
Timing for main: time 2025-03-17_23:26:42 on domain   2:    0.52247 elapsed seconds
Timing for main: time 2025-03-17_23:26:42 on domain   1:    2.36922 elapsed seconds
Timing for main: time 2025-03-17_23:27:00 on domain   2:    0.52151 elapsed seconds
Timing for main: time 2025-03-17_23:27:18 on domain   2:    0.52226 elapsed seconds
Timing for main: time 2025-03-17_23:27:36 on domain   2:    0.52239 elapsed seconds
Timing for main: time 2025-03-17_23:27:36 on domain   1:    2.36831 elapsed seconds
Timing for main: time 2025-03-17_23:27:54 on domain   2:    0.52116 elapsed seconds
Timing for main: time 2025-03-17_23:28:12 on domain   2:    0.52248 elapsed seconds
Timing for main: time 2025-03-17_23:28:30 on domain   2:    0.52033 elapsed seconds
Timing for main: time 2025-03-17_23:28:30 on domain   1:    2.36544 elapsed seconds
Timing for main: time 2025-03-17_23:28:48 on domain   2:    0.52854 elapsed seconds
Timing for main: time 2025-03-17_23:29:06 on domain   2:    0.52100 elapsed seconds
Timing for main: time 2025-03-17_23:29:24 on domain   2:    0.52000 elapsed seconds
Timing for main: time 2025-03-17_23:29:24 on domain   1:    2.39006 elapsed seconds
Timing for main: time 2025-03-17_23:29:42 on domain   2:    0.52265 elapsed seconds
Timing for main: time 2025-03-17_23:30:00 on domain   2:    0.52135 elapsed seconds
Timing for main: time 2025-03-17_23:30:18 on domain   2:    1.45578 elapsed seconds
Timing for main: time 2025-03-17_23:30:18 on domain   1:    3.30389 elapsed seconds
Timing for main: time 2025-03-17_23:30:36 on domain   2:    0.52129 elapsed seconds
Timing for main: time 2025-03-17_23:30:54 on domain   2:    0.55029 elapsed seconds
Timing for main: time 2025-03-17_23:31:12 on domain   2:    0.52087 elapsed seconds
Timing for main: time 2025-03-17_23:31:12 on domain   1:    2.39664 elapsed seconds
Timing for main: time 2025-03-17_23:31:30 on domain   2:    0.52669 elapsed seconds
Timing for main: time 2025-03-17_23:31:48 on domain   2:    0.52275 elapsed seconds
Timing for main: time 2025-03-17_23:32:06 on domain   2:    0.53636 elapsed seconds
Timing for main: time 2025-03-17_23:32:06 on domain   1:    2.38698 elapsed seconds
Timing for main: time 2025-03-17_23:32:24 on domain   2:    0.52140 elapsed seconds
Timing for main: time 2025-03-17_23:32:42 on domain   2:    0.51766 elapsed seconds
Timing for main: time 2025-03-17_23:33:00 on domain   2:    0.51947 elapsed seconds
Timing for main: time 2025-03-17_23:33:00 on domain   1:    2.36314 elapsed seconds
Timing for main: time 2025-03-17_23:33:18 on domain   2:    0.54411 elapsed seconds
Timing for main: time 2025-03-17_23:33:36 on domain   2:    0.52001 elapsed seconds
Timing for main: time 2025-03-17_23:33:54 on domain   2:    0.52088 elapsed seconds
Timing for main: time 2025-03-17_23:33:54 on domain   1:    2.39363 elapsed seconds
Timing for main: time 2025-03-17_23:34:12 on domain   2:    0.52154 elapsed seconds
Timing for main: time 2025-03-17_23:34:30 on domain   2:    0.52305 elapsed seconds
Timing for main: time 2025-03-17_23:34:48 on domain   2:    0.52035 elapsed seconds
Timing for main: time 2025-03-17_23:34:48 on domain   1:    2.40134 elapsed seconds
Timing for main: time 2025-03-17_23:35:06 on domain   2:    0.52382 elapsed seconds
Timing for main: time 2025-03-17_23:35:24 on domain   2:    0.52389 elapsed seconds
Timing for main: time 2025-03-17_23:35:42 on domain   2:    0.52322 elapsed seconds
Timing for main: time 2025-03-17_23:35:42 on domain   1:    2.37279 elapsed seconds
Timing for main: time 2025-03-17_23:36:00 on domain   2:    0.54242 elapsed seconds
Timing for main: time 2025-03-17_23:36:18 on domain   2:    0.52106 elapsed seconds
Timing for main: time 2025-03-17_23:36:36 on domain   2:    0.55993 elapsed seconds
Timing for main: time 2025-03-17_23:36:36 on domain   1:    2.42473 elapsed seconds
Timing for main: time 2025-03-17_23:36:54 on domain   2:    0.53016 elapsed seconds
Timing for main: time 2025-03-17_23:37:12 on domain   2:    0.52636 elapsed seconds
Timing for main: time 2025-03-17_23:37:30 on domain   2:    0.52064 elapsed seconds
Timing for main: time 2025-03-17_23:37:30 on domain   1:    2.38072 elapsed seconds
Timing for main: time 2025-03-17_23:37:48 on domain   2:    0.52298 elapsed seconds
Timing for main: time 2025-03-17_23:38:06 on domain   2:    0.53152 elapsed seconds
Timing for main: time 2025-03-17_23:38:24 on domain   2:    0.51830 elapsed seconds
Timing for main: time 2025-03-17_23:38:24 on domain   1:    3.25906 elapsed seconds
Timing for main: time 2025-03-17_23:38:42 on domain   2:    0.55317 elapsed seconds
Timing for main: time 2025-03-17_23:39:00 on domain   2:    0.51973 elapsed seconds
Timing for main: time 2025-03-17_23:39:18 on domain   2:    0.52189 elapsed seconds
Timing for main: time 2025-03-17_23:39:18 on domain   1:    2.39911 elapsed seconds
Timing for main: time 2025-03-17_23:39:36 on domain   2:    0.52356 elapsed seconds
Timing for main: time 2025-03-17_23:39:54 on domain   2:    0.51942 elapsed seconds
Timing for main: time 2025-03-17_23:40:12 on domain   2:    0.52164 elapsed seconds
Timing for main: time 2025-03-17_23:40:12 on domain   1:    2.38866 elapsed seconds
Timing for main: time 2025-03-17_23:40:30 on domain   2:    0.52160 elapsed seconds
Timing for main: time 2025-03-17_23:40:48 on domain   2:    0.54812 elapsed seconds
Timing for main: time 2025-03-17_23:41:06 on domain   2:    0.53161 elapsed seconds
Timing for main: time 2025-03-17_23:41:06 on domain   1:    2.40370 elapsed seconds
Timing for main: time 2025-03-17_23:41:24 on domain   2:    0.52169 elapsed seconds
Timing for main: time 2025-03-17_23:41:42 on domain   2:    0.53052 elapsed seconds
Timing for main: time 2025-03-17_23:42:00 on domain   2:    0.52276 elapsed seconds
Timing for main: time 2025-03-17_23:42:00 on domain   1:    2.38070 elapsed seconds
Timing for main: time 2025-03-17_23:42:18 on domain   2:    0.52009 elapsed seconds
Timing for main: time 2025-03-17_23:42:36 on domain   2:    0.52069 elapsed seconds
Timing for main: time 2025-03-17_23:42:54 on domain   2:    0.52229 elapsed seconds
Timing for main: time 2025-03-17_23:42:54 on domain   1:    2.36542 elapsed seconds
Timing for main: time 2025-03-17_23:43:12 on domain   2:    0.53686 elapsed seconds
Timing for main: time 2025-03-17_23:43:30 on domain   2:    0.52559 elapsed seconds
Timing for main: time 2025-03-17_23:43:48 on domain   2:    0.52050 elapsed seconds
Timing for main: time 2025-03-17_23:43:48 on domain   1:    2.39560 elapsed seconds
Timing for main: time 2025-03-17_23:44:06 on domain   2:    0.52395 elapsed seconds
Timing for main: time 2025-03-17_23:44:24 on domain   2:    0.51971 elapsed seconds
Timing for main: time 2025-03-17_23:44:42 on domain   2:    0.52877 elapsed seconds
Timing for main: time 2025-03-17_23:44:42 on domain   1:    2.38329 elapsed seconds
Timing for main: time 2025-03-17_23:45:00 on domain   2:    0.52720 elapsed seconds
Timing for main: time 2025-03-17_23:45:18 on domain   2:    1.43728 elapsed seconds
Timing for main: time 2025-03-17_23:45:36 on domain   2:    0.56578 elapsed seconds
Timing for main: time 2025-03-17_23:45:36 on domain   1:    3.35570 elapsed seconds
Timing for main: time 2025-03-17_23:45:54 on domain   2:    0.52017 elapsed seconds
Timing for main: time 2025-03-17_23:46:12 on domain   2:    0.52285 elapsed seconds
Timing for main: time 2025-03-17_23:46:30 on domain   2:    0.52105 elapsed seconds
Timing for main: time 2025-03-17_23:46:30 on domain   1:    2.38277 elapsed seconds
Timing for main: time 2025-03-17_23:46:48 on domain   2:    0.52479 elapsed seconds
Timing for main: time 2025-03-17_23:47:06 on domain   2:    0.52360 elapsed seconds
Timing for main: time 2025-03-17_23:47:24 on domain   2:    0.52241 elapsed seconds
Timing for main: time 2025-03-17_23:47:24 on domain   1:    2.38222 elapsed seconds
Timing for main: time 2025-03-17_23:47:42 on domain   2:    0.52023 elapsed seconds
Timing for main: time 2025-03-17_23:48:00 on domain   2:    0.52187 elapsed seconds
Timing for main: time 2025-03-17_23:48:18 on domain   2:    0.52347 elapsed seconds
Timing for main: time 2025-03-17_23:48:18 on domain   1:    2.36500 elapsed seconds
Timing for main: time 2025-03-17_23:48:36 on domain   2:    0.53226 elapsed seconds
Timing for main: time 2025-03-17_23:48:54 on domain   2:    0.51914 elapsed seconds
Timing for main: time 2025-03-17_23:49:12 on domain   2:    0.51774 elapsed seconds
Timing for main: time 2025-03-17_23:49:12 on domain   1:    2.44632 elapsed seconds
Timing for main: time 2025-03-17_23:49:30 on domain   2:    0.52019 elapsed seconds
Timing for main: time 2025-03-17_23:49:48 on domain   2:    0.52155 elapsed seconds
Timing for main: time 2025-03-17_23:50:06 on domain   2:    0.52601 elapsed seconds
Timing for main: time 2025-03-17_23:50:06 on domain   1:    2.36971 elapsed seconds
Timing for main: time 2025-03-17_23:50:24 on domain   2:    0.52012 elapsed seconds
Timing for main: time 2025-03-17_23:50:42 on domain   2:    0.52083 elapsed seconds
Timing for main: time 2025-03-17_23:51:00 on domain   2:    0.52128 elapsed seconds
Timing for main: time 2025-03-17_23:51:00 on domain   1:    2.39937 elapsed seconds
Timing for main: time 2025-03-17_23:51:18 on domain   2:    0.51996 elapsed seconds
Timing for main: time 2025-03-17_23:51:36 on domain   2:    0.52296 elapsed seconds
Timing for main: time 2025-03-17_23:51:54 on domain   2:    0.51749 elapsed seconds
Timing for main: time 2025-03-17_23:51:54 on domain   1:    2.36352 elapsed seconds
Timing for main: time 2025-03-17_23:52:12 on domain   2:    0.53458 elapsed seconds
Timing for main: time 2025-03-17_23:52:30 on domain   2:    0.52077 elapsed seconds
Timing for main: time 2025-03-17_23:52:48 on domain   2:    0.51840 elapsed seconds
Timing for main: time 2025-03-17_23:52:48 on domain   1:    2.37561 elapsed seconds
Timing for main: time 2025-03-17_23:53:06 on domain   2:    0.52079 elapsed seconds
Timing for main: time 2025-03-17_23:53:24 on domain   2:    0.52062 elapsed seconds
Timing for main: time 2025-03-17_23:53:42 on domain   2:    0.51890 elapsed seconds
Timing for main: time 2025-03-17_23:53:42 on domain   1:    3.21935 elapsed seconds
Timing for main: time 2025-03-17_23:54:00 on domain   2:    0.52040 elapsed seconds
Timing for main: time 2025-03-17_23:54:18 on domain   2:    0.51983 elapsed seconds
Timing for main: time 2025-03-17_23:54:36 on domain   2:    0.52796 elapsed seconds
Timing for main: time 2025-03-17_23:54:36 on domain   1:    2.38387 elapsed seconds
Timing for main: time 2025-03-17_23:54:54 on domain   2:    0.52293 elapsed seconds
Timing for main: time 2025-03-17_23:55:12 on domain   2:    0.52155 elapsed seconds
Timing for main: time 2025-03-17_23:55:30 on domain   2:    0.51798 elapsed seconds
Timing for main: time 2025-03-17_23:55:30 on domain   1:    2.35996 elapsed seconds
Timing for main: time 2025-03-17_23:55:48 on domain   2:    0.54397 elapsed seconds
Timing for main: time 2025-03-17_23:56:06 on domain   2:    0.51965 elapsed seconds
Timing for main: time 2025-03-17_23:56:24 on domain   2:    0.51767 elapsed seconds
Timing for main: time 2025-03-17_23:56:24 on domain   1:    2.41405 elapsed seconds
Timing for main: time 2025-03-17_23:56:42 on domain   2:    0.51807 elapsed seconds
Timing for main: time 2025-03-17_23:57:00 on domain   2:    0.51822 elapsed seconds
Timing for main: time 2025-03-17_23:57:18 on domain   2:    0.52242 elapsed seconds
Timing for main: time 2025-03-17_23:57:18 on domain   1:    2.36167 elapsed seconds
Timing for main: time 2025-03-17_23:57:36 on domain   2:    0.51949 elapsed seconds
Timing for main: time 2025-03-17_23:57:54 on domain   2:    0.53501 elapsed seconds
Timing for main: time 2025-03-17_23:58:12 on domain   2:    0.51608 elapsed seconds
Timing for main: time 2025-03-17_23:58:12 on domain   1:    2.39353 elapsed seconds
Timing for main: time 2025-03-17_23:58:30 on domain   2:    0.51960 elapsed seconds
Timing for main: time 2025-03-17_23:58:48 on domain   2:    0.52061 elapsed seconds
Timing for main: time 2025-03-17_23:59:06 on domain   2:    0.52055 elapsed seconds
Timing for main: time 2025-03-17_23:59:06 on domain   1:    2.36316 elapsed seconds
Timing for main: time 2025-03-17_23:59:24 on domain   2:    0.53418 elapsed seconds
Timing for main: time 2025-03-17_23:59:42 on domain   2:    0.51720 elapsed seconds
Timing for main: time 2025-03-18_00:00:00 on domain   2:    0.52065 elapsed seconds
Timing for Writing wrfout_d02_2025-03-18_00:00:00 for domain        2:    2.20598 elapsed seconds
Timing for main: time 2025-03-18_00:00:00 on domain   1:    4.57876 elapsed seconds
Timing for Writing wrfout_d01_2025-03-18_00:00:00 for domain        1:    2.09497 elapsed seconds
d01 2025-03-18_00:00:00 wrf: SUCCESS COMPLETE WRF
